19
Iteration:  4469charge 0 multiplicity 1
 C         0.270553         0.346234         0.361646
 C         1.257320        -0.219219        -0.539216
 O         1.728253        -1.510461        -0.277917
 C         2.695198        -0.411510        -0.599612
 C         2.752964        -0.325183        -2.168371
 C         3.008154        -1.620193        -2.995778
 O         1.780050        -2.168996        -3.406756
 C         0.627120        -1.229126        -3.102868
 C         1.236442        -0.090992        -2.168290
 H         0.495220         0.180705         1.515097
 H         0.243426         1.412430         0.187998
 H        -0.765315        -0.042384         0.103623
 H         3.308624        -0.100883         0.161894
 H         3.274357         0.583913        -2.449052
 H         3.754385        -1.446402        -3.808676
 H         3.337214        -2.368559        -2.259622
 H         0.218130        -0.917869        -4.001439
 H        -0.134261        -1.748167        -2.517435
 H         0.901151         0.781264        -2.661418
