19
Iteration:  3211charge 0 multiplicity 1
 C         0.397653         0.297196         0.453611
 C         1.199914        -0.233638        -0.664572
 O         1.945971        -1.349225        -0.340319
 C         2.611257        -0.141347        -0.839223
 C         2.550848        -0.180602        -2.392456
 C         2.978226        -1.383109        -3.161157
 O         1.885380        -2.287588        -2.868438
 C         0.695286        -1.627215        -2.887348
 C         0.999404        -0.298430        -2.243420
 H         0.335705        -0.483721         1.133252
 H         1.005137         1.137216         0.812987
 H        -0.692275         0.489922         0.255963
 H         3.385953         0.292173        -0.121491
 H         2.786571         0.771909        -2.968308
 H         2.953874        -1.310168        -4.216170
 H         3.920595        -1.927931        -2.811694
 H         0.269466        -1.360655        -4.023624
 H        -0.006383        -2.329916        -2.397498
 H         0.493552         0.582750        -2.725693
