19
Iteration:   458
 C         0.372163         0.552046         0.385844
 C         1.231354        -0.179410        -0.561957
 O         2.031936        -1.176483        -0.125917
 C         2.630975        -0.102890        -0.855953
 C         2.387572        -0.248415        -2.413146
 C         2.960813        -1.418908        -3.152795
 O         1.898143        -2.222243        -3.478156
 C         0.768259        -1.928728        -2.519793
 C         0.922018        -0.495128        -2.217354
 H        -0.344329         1.223431        -0.032713
 H        -0.345419        -0.384832         0.790411
 H         0.982872         0.949566         1.268716
 H         3.567098         0.312129        -0.472495
 H         2.679101         0.745520        -2.897834
 H         3.601527        -1.117114        -4.039961
 H         3.678730        -2.047470        -2.484131
 H        -0.073493        -2.149849        -3.270582
 H         0.857509        -2.610537        -1.663871
 H         0.181265         0.191609        -2.744250
