19
Iteration:   368charge 0 multiplicity 1
 C         0.164557         0.372532         0.304093
 C         1.272452        -0.210318        -0.543645
 O         2.256400        -1.112364        -0.100481
 C         2.705855         0.134541        -0.865160
 C         2.552815        -0.269592        -2.421803
 C         3.008198        -1.565514        -3.072091
 O         1.714618        -2.177089        -3.542130
 C         0.658583        -1.928265        -2.640956
 C         0.966126        -0.461504        -2.064502
 H         0.217769         1.402639         0.320903
 H        -0.971704        -0.016942         0.020546
 H         0.166424         0.007002         1.286024
 H         3.428468         0.708251        -0.375147
 H         2.662063         0.556532        -3.124199
 H         3.713166        -1.495976        -3.824889
 H         3.531425        -2.261151        -2.299963
 H        -0.291121        -2.004110        -3.120633
 H         0.698123        -2.555486        -1.706285
 H         0.319899         0.308458        -2.481819
