19
Iteration:   396
 C         0.261619         0.529989         0.249707
 C         1.210926        -0.199347        -0.569702
 O         2.275398        -1.105286        -0.044114
 C         2.649694        -0.036737        -0.896978
 C         2.479733        -0.277371        -2.366328
 C         2.892266        -1.526408        -3.029870
 O         1.757685        -2.056174        -3.657666
 C         0.802027        -2.039529        -2.623149
 C         0.921896        -0.570723        -2.019234
 H         0.297009         1.736828         0.281852
 H        -0.615339         0.152586         0.055919
 H         0.230357         0.059348         1.295551
 H         3.353117         0.820507        -0.436787
 H         2.595151         0.677038        -2.899128
 H         3.849998        -1.490516        -3.693438
 H         3.179441        -2.204507        -2.264317
 H        -0.243098        -2.209172        -2.996958
 H         0.980322        -2.754050        -1.823045
 H         0.178198         0.117431        -2.463971
