19
Iteration:  3599charge 0 multiplicity 1
 C         0.199404         0.292957         0.319016
 C         1.260627        -0.192054        -0.599717
 O         1.972412        -1.343747        -0.237114
 C         2.764883        -0.216081        -0.735277
 C         2.765605        -0.235192        -2.258807
 C         2.990575        -1.569116        -3.009853
 O         1.709152        -2.170605        -3.422204
 C         0.542934        -1.573742        -2.793410
 C         1.154225        -0.207186        -2.140756
 H        -0.067566        -0.773809         0.812544
 H         0.355722         1.174471         1.001343
 H        -0.718816         0.556212        -0.126698
 H         3.601259         0.233449        -0.117395
 H         3.034569         0.664193        -2.793017
 H         3.533229        -1.357592        -3.940029
 H         3.586275        -2.342770        -2.418698
 H        -0.173500        -1.173770        -3.530397
 H         0.009100        -2.158924        -2.108675
 H         0.742166         0.684296        -2.835219
