19
Iteration:  4403
 C         0.173702         0.354440         0.344812
 C         1.253415        -0.179407        -0.638934
 O         1.813402        -1.454301        -0.243080
 C         2.683364        -0.413651        -0.615730
 C         2.759895        -0.368055        -2.142586
 C         2.996877        -1.684551        -2.849963
 O         1.790299        -1.987681        -3.622311
 C         0.601551        -1.306135        -2.930515
 C         1.232310        -0.171317        -2.196128
 H         0.596551        -0.030909         1.339467
 H         0.182945         1.415776         0.333596
 H        -0.848163        -0.023865        -0.004353
 H         3.532589        -0.091964        -0.019015
 H         3.388623         0.426483        -2.503346
 H         3.763669        -1.850024        -3.610042
 H         3.052525        -2.428929        -2.067702
 H        -0.031833        -0.965738        -3.709444
 H         0.169248        -2.119014        -2.281972
 H         1.059831         0.838594        -2.523530
