19
Iteration:  4910charge 0 multiplicity 1
 C         0.241955         0.446115         0.403867
 C         1.109399        -0.250445        -0.583738
 O         1.829648        -1.609367        -0.265246
 C         2.623860        -0.413907        -0.570948
 C         2.828275        -0.342759        -2.158032
 C         3.028421        -1.617983        -2.929592
 O         1.722961        -2.143881        -3.428686
 C         0.712873        -1.195916        -3.129661
 C         1.197540        -0.125236        -2.221513
 H         0.836527         0.548599         1.257682
 H        -0.108716         1.566290        -0.029719
 H        -0.579082        -0.166747         0.695334
 H         3.302030        -0.089880         0.105772
 H         3.532553         0.567379        -2.441002
 H         3.529257        -1.364989        -3.809098
 H         3.557050        -2.332723        -2.281832
 H         0.330667        -0.867470        -4.154289
 H        -0.092706        -1.809712        -2.735348
 H         0.878337         0.860502        -2.462071
