19
Iteration:  2540
 C         0.149272         0.212603         0.275477
 C         1.253875        -0.247931        -0.609113
 O         2.301328        -1.255776        -0.303935
 C         2.669840         0.022500        -0.932951
 C         2.569161        -0.095998        -2.419487
 C         2.840295        -1.388079        -3.192418
 O         1.868826        -2.428701        -2.859078
 C         0.622191        -1.637305        -2.737715
 C         1.022800        -0.364139        -2.143250
 H        -0.232150         1.181092         0.152854
 H        -0.776678        -0.467686        -0.027068
 H         0.393403         0.143704         1.298087
 H         3.580268         0.600124        -0.511638
 H         2.806872         0.830514        -2.870635
 H         2.751384        -1.282908        -4.257720
 H         3.801204        -1.781876        -2.958981
 H         0.150619        -1.634587        -3.687364
 H        -0.027288        -2.275219        -2.104051
 H         0.262869         0.485234        -2.525257
