19
Iteration:   213charge 0 multiplicity 1
 C         0.333927         0.313439         0.321090
 C         1.237534        -0.240388        -0.663181
 O         2.132473        -1.217977        -0.226202
 C         2.703761        -0.062732        -0.817809
 C         2.541644        -0.193478        -2.330202
 C         2.905501        -1.420839        -3.270845
 O         1.908678        -2.453008        -2.963720
 C         0.608737        -1.644990        -2.868737
 C         0.918862        -0.357901        -2.106399
 H        -0.592841         0.601816        -0.180800
 H         0.040736        -0.413482         1.157969
 H         0.691470         1.249077         0.722245
 H         3.331036         0.742817        -0.216900
 H         2.787424         0.819578        -2.709746
 H         2.750338        -1.063661        -4.287959
 H         3.952073        -1.846093        -3.162604
 H         0.072567        -1.478002        -3.870466
 H        -0.151838        -2.273091        -2.361461
 H         0.417118         0.538614        -2.433449
