19
Iteration:  1394
 C         0.219718         0.291699         0.356923
 C         1.280086        -0.156430        -0.638610
 O         2.300502        -1.054858        -0.164393
 C         2.707811         0.053543        -0.879503
 C         2.560583        -0.287484        -2.349889
 C         2.861046        -1.666348        -2.789098
 O         1.723243        -2.070208        -3.648499
 C         0.690282        -1.924149        -2.679653
 C         0.950629        -0.390858        -2.134407
 H        -0.420382         1.161285         0.048049
 H        -0.466049        -0.489093         0.360337
 H         0.495111         0.177541         1.446971
 H         3.415635         0.824893        -0.401096
 H         2.867610         0.495874        -3.191413
 H         3.715718        -1.639299        -3.470988
 H         2.853999        -2.288471        -1.897193
 H        -0.303887        -1.953633        -3.225618
 H         0.854497        -2.867871        -1.940574
 H         0.321555         0.428769        -2.592999
