19
Iteration:  2983charge 0 multiplicity 1
 C         0.122365         0.520159         0.302179
 C         1.193215        -0.203490        -0.583301
 O         2.325203        -1.210799        -0.044661
 C         2.682581        -0.013895        -0.750557
 C         2.525004        -0.309817        -2.354181
 C         2.955388        -1.528102        -3.045558
 O         1.689922        -2.045290        -3.697766
 C         0.793918        -1.959085        -2.611571
 C         0.972657        -0.507348        -2.093299
 H         0.181766         1.640935         0.137331
 H        -0.872116         0.385465        -0.031366
 H         0.228843         0.407552         1.362308
 H         3.351410         0.619899        -0.319244
 H         2.654536         0.621970        -2.948921
 H         3.609939        -1.385605        -3.918400
 H         3.324188        -2.307360        -2.449676
 H        -0.173084        -2.341947        -2.986867
 H         1.182752        -2.761718        -1.845511
 H         0.280638         0.115773        -2.719926
