19
Iteration:  4542
 C         0.326892         0.419474         0.307113
 C         1.244213        -0.244687        -0.642265
 O         1.656439        -1.570698        -0.352899
 C         2.656639        -0.651785        -0.618257
 C         2.765898        -0.303975        -2.128596
 C         2.994912        -1.445651        -3.134365
 O         1.795682        -2.136800        -3.059577
 C         0.676069        -1.283097        -3.070650
 C         1.211498        -0.072121        -2.179797
 H         0.664442         0.839450         1.217539
 H        -0.079880         1.256653        -0.223701
 H        -0.601838        -0.188226         0.446087
 H         3.466596        -0.465085         0.120784
 H         3.275022         0.611879        -2.315947
 H         3.195683        -1.044437        -4.107835
 H         3.807763        -2.058193        -2.682355
 H         0.495845        -0.884750        -4.195695
 H        -0.137365        -1.883029        -2.702582
 H         1.100367         0.974457        -2.575405
