19
Iteration:  1805charge 0 multiplicity 1
 C         0.279455         0.435553         0.469367
 C         1.178242        -0.259870        -0.667702
 O         2.200434        -1.214494        -0.218737
 C         2.666050         0.001955        -0.856017
 C         2.490246        -0.201171        -2.350225
 C         2.977619        -1.428549        -3.123643
 O         1.872033        -2.411225        -3.253178
 C         0.609956        -1.808260        -2.796080
 C         0.976011        -0.406131        -2.150489
 H         0.039223         1.413887         0.179911
 H        -0.744694        -0.142909         0.689991
 H         1.017177         0.523492         1.465199
 H         3.217090         0.772297        -0.144190
 H         2.740186         0.689844        -2.924495
 H         3.128778        -0.949323        -4.126592
 H         3.933600        -1.918629        -2.874806
 H        -0.049127        -1.546395        -3.679951
 H         0.081894        -2.390203        -2.056702
 H         0.299454         0.417039        -2.508971
