19
Iteration:  1815charge 0 multiplicity 1
 C         0.272911         0.388077         0.423091
 C         1.154556        -0.256449        -0.582034
 O         2.253652        -1.148988        -0.181040
 C         2.654380        -0.027873        -0.840679
 C         2.466299        -0.247096        -2.325402
 C         2.926846        -1.456680        -3.193554
 O         1.890489        -2.379883        -3.194658
 C         0.626642        -1.719009        -2.893996
 C         0.955252        -0.435062        -2.148198
 H        -0.039891         1.359028         0.116108
 H        -0.631173        -0.216533         0.865150
 H         1.023516         0.570412         1.373050
 H         3.428840         0.784352        -0.360683
 H         2.629421         0.709828        -2.911327
 H         3.129072        -1.283391        -4.252315
 H         3.769775        -1.975840        -2.681541
 H        -0.043523        -1.627439        -3.783716
 H         0.172361        -2.447806        -2.273139
 H         0.525669         0.503245        -2.574908
