19
Iteration:  1148
 C         0.245379         0.154782         0.436158
 C         1.220620        -0.113467        -0.691561
 O         2.237708        -1.165791        -0.292878
 C         2.699552         0.042089        -0.882433
 C         2.538026        -0.170113        -2.448522
 C         2.976286        -1.613291        -2.910148
 O         1.792642        -2.298391        -3.272113
 C         0.554690        -1.723959        -2.653888
 C         0.992148        -0.258123        -2.284542
 H        -0.435852         0.892732         0.203490
 H        -0.373439        -0.850493         0.675409
 H         0.745060         0.492496         1.267607
 H         3.360137         0.746721        -0.170342
 H         2.821469         0.531909        -3.232031
 H         3.619547        -1.588118        -3.761633
 H         3.418836        -2.181265        -2.076658
 H        -0.231666        -1.784508        -3.383512
 H         0.261714        -2.317931        -1.679357
 H         0.560969         0.549390        -2.821048
