19
Iteration:  2455charge 0 multiplicity 1
 C         0.303508         0.175654         0.441363
 C         1.247488        -0.262410        -0.611973
 O         2.288101        -1.176466        -0.336547
 C         2.666503         0.084791        -0.981011
 C         2.457483        -0.139718        -2.452084
 C         2.999023        -1.506716        -2.800940
 O         1.782993        -2.405740        -3.078453
 C         0.607367        -1.651192        -2.921644
 C         0.883792        -0.350636        -2.178183
 H        -0.504371         0.725192         0.008117
 H        -0.021794        -0.793537         1.003250
 H         0.824848         0.897747         1.193305
 H         3.407325         0.664830        -0.548408
 H         2.634802         0.673898        -3.157695
 H         3.319564        -1.298760        -3.872899
 H         3.789099        -1.975581        -2.193175
 H         0.230958        -1.142526        -3.957025
 H        -0.136766        -2.255576        -2.485637
 H         0.289644         0.489118        -2.520186
