19
Iteration:  3466charge 0 multiplicity 1
 C         0.193854         0.417411         0.262499
 C         1.253327        -0.203852        -0.583274
 O         2.072305        -1.280259        -0.039593
 C         2.804733        -0.227453        -0.736589
 C         2.568822        -0.307541        -2.293723
 C         2.941593        -1.622503        -3.037919
 O         1.706842        -1.889910        -3.682512
 C         0.710004        -1.787969        -2.721225
 C         1.075803        -0.346652        -2.089013
 H        -0.620127         1.002744        -0.423463
 H        -0.403176        -0.372076         0.679460
 H         0.639119         1.183365         0.881283
 H         3.557963         0.308688        -0.139198
 H         2.965066         0.625025        -2.689866
 H         3.818353        -1.766113        -3.699086
 H         2.971286        -2.413292        -2.147775
 H        -0.244404        -1.858456        -3.137800
 H         0.784597        -2.617695        -2.006928
 H         0.435280         0.456243        -2.609282
