19
Iteration:  1441charge 0 multiplicity 1
 C         0.185862         0.288953         0.380014
 C         1.235313        -0.123492        -0.635580
 O         2.189638        -1.186643        -0.208611
 C         2.662417         0.036479        -0.839306
 C         2.545299        -0.190472        -2.326457
 C         2.972239        -1.565808        -3.087900
 O         1.746592        -2.282799        -3.370338
 C         0.672516        -1.771064        -2.684278
 C         1.058704        -0.400952        -2.186699
 H        -0.386886         1.213880        -0.065546
 H        -0.522822        -0.456315         0.739027
 H         0.709797         0.559994         1.240027
 H         3.500440         0.524772        -0.303407
 H         2.908848         0.618106        -2.862006
 H         3.335956        -1.344010        -4.088715
 H         3.591992        -2.152340        -2.425770
 H        -0.253755        -1.865627        -3.282029
 H         0.593649        -2.416317        -1.738118
 H         0.504646         0.419864        -2.622128
