19
Iteration:  1048
 C         0.370293         0.699326         0.443691
 C         1.162920        -0.188852        -0.583400
 O         2.151080        -1.121867        -0.043047
 C         2.622140        -0.062689        -0.875939
 C         2.430802        -0.291929        -2.330245
 C         2.984315        -1.473341        -3.117163
 O         1.837791        -2.104389        -3.716772
 C         0.714555        -2.111465        -2.612120
 C         0.921950        -0.656897        -2.080824
 H         0.185451         1.666105         0.045810
 H        -0.606655         0.165215         0.808828
 H         0.904604         0.702337         1.355482
 H         3.389327         0.677206        -0.575486
 H         2.706902         0.670829        -2.750823
 H         3.627275        -1.180939        -3.929796
 H         3.534791        -2.064243        -2.388878
 H        -0.216096        -2.202454        -3.284694
 H         0.838927        -2.965141        -1.920721
 H         0.275722         0.056636        -2.569057
