19
Iteration:  1397charge 0 multiplicity 1
 C         0.217415         0.292765         0.368806
 C         1.261774        -0.151061        -0.656771
 O         2.297081        -1.048977        -0.160097
 C         2.711462         0.033054        -0.883721
 C         2.568179        -0.266320        -2.362372
 C         2.864630        -1.665310        -2.789930
 O         1.697306        -2.065333        -3.625207
 C         0.716076        -1.932143        -2.679920
 C         0.972424        -0.387323        -2.140664
 H        -0.514925         1.215042         0.058434
 H        -0.474295        -0.611535         0.398529
 H         0.484467         0.104745         1.342586
 H         3.510986         0.780871        -0.457310
 H         2.774462         0.441288        -3.062021
 H         3.708820        -1.599199        -3.482855
 H         2.849102        -2.375884        -1.953157
 H        -0.229772        -1.995090        -3.241192
 H         0.798610        -2.724099        -1.918501
 H         0.394211         0.399158        -2.625482
