19
Iteration:  1974charge 0 multiplicity 1
 C         0.217185         0.357961         0.357975
 C         1.257946        -0.266725        -0.629963
 O         2.290618        -1.210576        -0.113407
 C         2.717024        -0.029981        -0.895523
 C         2.441579        -0.161915        -2.377983
 C         2.916227        -1.410184        -3.176831
 O         1.863085        -2.407770        -3.062964
 C         0.651025        -1.704542        -2.877511
 C         0.897504        -0.471200        -2.168632
 H         0.297301         1.607642         0.306048
 H        -0.893384         0.173085         0.112241
 H         0.541931         0.166438         1.339638
 H         3.519489         0.649612        -0.418988
 H         2.558832         0.806812        -2.986473
 H         3.081198        -1.066802        -4.178463
 H         3.845715        -1.766167        -2.702790
 H         0.323967        -1.555085        -3.894829
 H        -0.144139        -2.401951        -2.405054
 H         0.185583         0.378134        -2.343725
