19
Iteration:   821charge 0 multiplicity 1
 C         0.181920         0.185001         0.312641
 C         1.311764        -0.136399        -0.624635
 O         2.201927        -1.245700        -0.289891
 C         2.757696        -0.019509        -0.959984
 C         2.510572        -0.109606        -2.501472
 C         2.923882        -1.416421        -3.219877
 O         1.845168        -2.445226        -2.910932
 C         0.623192        -1.689915        -2.670960
 C         0.954912        -0.303752        -2.107379
 H        -0.118101         1.130809         0.165630
 H        -0.608894        -0.535914        -0.008457
 H         0.373499         0.052919         1.287454
 H         3.496404         0.717341        -0.463414
 H         2.846209         0.816227        -2.930218
 H         2.960727        -1.165194        -4.224899
 H         3.776466        -1.792985        -2.662195
 H        -0.028581        -1.539755        -3.572565
 H         0.115955        -2.182438        -1.832872
 H         0.223571         0.307429        -2.504612
