19
Iteration:  3320charge 0 multiplicity 1
 C         0.177532         0.349501         0.367668
 C         1.220861        -0.137246        -0.617990
 O         2.048899        -1.309847        -0.211767
 C         2.742661        -0.137065        -0.764065
 C         2.651138        -0.304974        -2.282229
 C         2.983590        -1.491793        -3.181521
 O         1.812073        -2.206792        -3.256160
 C         0.605499        -1.624665        -2.781817
 C         1.045440        -0.356044        -2.165922
 H         0.632416         0.980270         1.081834
 H        -0.773843         0.772564        -0.063543
 H        -0.282402        -0.713219         0.756884
 H         3.711056         0.313747        -0.253529
 H         2.951805         0.682022        -2.780121
 H         3.227430        -1.071317        -4.225125
 H         3.833812        -2.224251        -2.822470
 H        -0.035992        -1.322001        -3.533502
 H         0.235389        -2.408433        -2.164801
 H         0.552229         0.555001        -2.622398
