19
Iteration:  4646charge 0 multiplicity 1
 C         0.156332         0.386821         0.192214
 C         1.218358        -0.262728        -0.600695
 O         1.915843        -1.485174        -0.251428
 C         2.710227        -0.445674        -0.548175
 C         2.835408        -0.332893        -2.108112
 C         2.947587        -1.554624        -3.008540
 O         1.668367        -2.100855        -3.373889
 C         0.632590        -1.310991        -3.067432
 C         1.246794        -0.207687        -2.094715
 H        -0.103319         0.058068         1.195836
 H         0.343969         1.490279         0.293271
 H        -0.782811         0.392523        -0.280749
 H         3.484318        -0.068187         0.286468
 H         3.664186         0.515137        -2.324835
 H         3.612839        -1.196788        -3.826526
 H         3.612204        -2.356473        -2.657586
 H         0.255816        -0.724333        -4.057057
 H        -0.290393        -1.929750        -2.658753
 H         0.828248         0.789086        -2.367596
