19
Iteration:  4250
 C         0.182367         0.469110         0.407567
 C         1.145993        -0.210504        -0.588549
 O         1.829066        -1.512309        -0.445066
 C         2.731317        -0.440980        -0.621611
 C         2.780586        -0.327500        -2.163012
 C         3.054492        -1.635939        -2.892433
 O         1.747520        -2.035421        -3.587464
 C         0.642069        -1.368960        -2.817848
 C         1.225604        -0.165118        -2.181485
 H         0.088290         0.311853         1.501377
 H         0.436234         1.482059         0.210958
 H        -0.944777         0.344804         0.161111
 H         3.483483        -0.184918         0.319462
 H         3.211589         0.581238        -2.624045
 H         3.784511        -1.523586        -3.741410
 H         3.465176        -2.406642        -2.120898
 H        -0.178564        -1.352110        -3.555146
 H         0.392872        -2.265635        -2.095425
 H         0.826952         0.803963        -2.494960
