19
Iteration:   744charge 0 multiplicity 1
 C         0.461793         0.727500         0.480392
 C         1.138689        -0.153230        -0.558728
 O         1.989583        -1.297616        -0.174964
 C         2.565416        -0.194403        -0.896635
 C         2.425090        -0.144228        -2.411508
 C         2.985444        -1.262020        -3.273461
 O         2.021579        -2.383390        -3.280043
 C         0.729701        -2.000638        -2.677751
 C         0.900407        -0.519661        -2.141872
 H        -0.089176         1.461352         0.046823
 H        -0.328122        -0.044597         0.859674
 H         1.020010         0.946062         1.333301
 H         3.380782         0.169478        -0.324517
 H         2.525284         0.890289        -2.641381
 H         3.164133        -0.809271        -4.307307
 H         3.992902        -1.668224        -3.005545
 H         0.070726        -2.000380        -3.516783
 H         0.350340        -2.693295        -1.960117
 H         0.204702         0.067802        -2.676263
