19
Iteration:  2465
 C         0.326354         0.178536         0.442977
 C         1.215874        -0.197375        -0.696837
 O         2.328088        -1.196620        -0.410175
 C         2.606506         0.111700        -0.910777
 C         2.460636        -0.103769        -2.422907
 C         2.995063        -1.487557        -2.838125
 O         1.743761        -2.427751        -3.037861
 C         0.609780        -1.643328        -2.920006
 C         0.939300        -0.380712        -2.158101
 H        -0.589547         0.637244         0.205262
 H        -0.000482        -0.800883         1.094009
 H         0.949436         0.687904         1.202336
 H         3.285977         0.714231        -0.322254
 H         2.774634         0.685876        -3.083900
 H         3.551108        -1.553317        -3.822588
 H         3.568877        -2.060087        -2.106132
 H         0.291855        -1.402097        -4.026496
 H        -0.162684        -2.241861        -2.604251
 H         0.290981         0.465142        -2.550227
