19
Iteration:  3582
 C         0.277116         0.302069         0.314378
 C         1.256652        -0.136829        -0.685253
 O         1.988784        -1.407092        -0.284418
 C         2.715021        -0.282379        -0.682671
 C         2.599471        -0.278099        -2.260148
 C         2.969209        -1.533662        -3.006255
 O         1.778131        -2.138537        -3.368841
 C         0.646901        -1.504718        -2.769022
 C         1.058780        -0.222583        -2.228336
 H        -0.190699        -0.410600         0.936126
 H         0.744912         1.018201         1.013119
 H        -0.518169         0.921522        -0.283601
 H         3.446316         0.063531        -0.030310
 H         3.197292         0.588740        -2.617738
 H         3.567705        -1.358883        -3.927150
 H         3.541956        -2.218648        -2.358328
 H        -0.295837        -1.536350        -3.411034
 H         0.332809        -2.225622        -1.894817
 H         0.569583         0.633493        -2.404913
