19
Iteration:  4671
 C         0.142966         0.312454         0.197632
 C         1.272346        -0.254850        -0.562511
 O         1.825267        -1.497047        -0.174531
 C         2.727839        -0.471878        -0.635377
 C         2.774707        -0.338358        -2.172519
 C         3.015053        -1.640190        -3.031317
 O         1.719355        -2.145637        -3.375030
 C         0.673349        -1.188733        -2.960157
 C         1.207996        -0.056306        -2.176145
 H         0.156088         0.108185         1.233092
 H        -0.010947         1.500143         0.169242
 H        -0.839883        -0.104056        -0.101706
 H         3.307285         0.002796         0.086900
 H         3.513444         0.482224        -2.497932
 H         3.704810        -1.207981        -3.815974
 H         3.604604        -2.467756        -2.662468
 H         0.210940        -0.731814        -3.926608
 H        -0.173411        -1.790254        -2.424743
 H         0.982608         1.005943        -2.409360
