19
Iteration:  1387
 C         0.242948         0.262933         0.359606
 C         1.284023        -0.151022        -0.587822
 O         2.300282        -1.089858        -0.157579
 C         2.706306         0.129468        -0.876723
 C         2.519771        -0.277816        -2.377803
 C         2.866618        -1.681782        -2.823693
 O         1.785378        -2.076934        -3.677646
 C         0.625639        -1.890567        -2.683039
 C         0.935410        -0.445506        -2.112479
 H        -0.167394         1.332410         0.006416
 H        -0.649565        -0.468106         0.234019
 H         0.561746         0.518817         1.336095
 H         3.279421         0.903192        -0.269587
 H         2.911273         0.381737        -3.035943
 H         3.811066        -1.867635        -3.367092
 H         2.998233        -2.264450        -1.883550
 H        -0.355858        -1.953504        -3.135283
 H         0.755270        -2.695012        -2.048564
 H         0.272594         0.318209        -2.492931
