19
Iteration:  2505charge 0 multiplicity 1
 C         0.253418         0.081622         0.421663
 C         1.225803        -0.162847        -0.719242
 O         2.265090        -1.145003        -0.252061
 C         2.636142         0.056388        -0.954001
 C         2.537783        -0.170887        -2.448153
 C         2.933947        -1.478081        -3.093002
 O         1.801785        -2.398143        -2.860220
 C         0.598614        -1.618221        -2.903236
 C         0.991121        -0.361131        -2.202067
 H        -0.435360         0.943896         0.278384
 H        -0.273407        -0.901489         0.564081
 H         0.823721         0.075951         1.337353
 H         3.545976         0.767304        -0.543881
 H         2.819423         0.747938        -2.978640
 H         3.263774        -1.358078        -4.121646
 H         3.743193        -1.918307        -2.487119
 H         0.266242        -1.307593        -3.884119
 H        -0.265631        -2.157750        -2.290971
 H         0.273363         0.507825        -2.519192
