19
Iteration:   227
 C         0.209077         0.355149         0.392852
 C         1.231582        -0.210144        -0.590857
 O         2.182520        -1.205464        -0.059008
 C         2.720421        -0.069871        -0.829268
 C         2.496317        -0.151371        -2.436240
 C         2.808948        -1.440434        -3.280846
 O         1.876711        -2.462545        -3.016169
 C         0.676832        -1.663304        -2.931149
 C         1.061131        -0.369775        -2.181795
 H        -0.742450         0.541644        -0.041980
 H         0.162534        -0.471461         1.250805
 H         0.571822         1.219160         0.911460
 H         3.472835         0.338525        -0.356318
 H         2.791733         0.738995        -2.989621
 H         2.732330        -1.151039        -4.386416
 H         3.885130        -1.858619        -3.155807
 H         0.454742        -1.300658        -4.012443
 H        -0.089173        -2.322630        -2.449197
 H         0.315669         0.415562        -2.490590
