19
Iteration:  2905charge 0 multiplicity 1
 C         0.323603         0.411068         0.447314
 C         1.234436        -0.161394        -0.633263
 O         2.024660        -1.254977        -0.248066
 C         2.604483        -0.033548        -0.873580
 C         2.470345        -0.162490        -2.439440
 C         3.023833        -1.451890        -3.084064
 O         1.891891        -2.293242        -3.342419
 C         0.691145        -1.868206        -2.613920
 C         0.982280        -0.360888        -2.191865
 H         0.265453         1.463987         0.357554
 H        -0.568139        -0.212615         0.640243
 H         0.865486         0.283923         1.479475
 H         3.404166         0.387633        -0.302188
 H         2.544289         0.810308        -2.985015
 H         3.481208        -1.308342        -4.072363
 H         3.759433        -1.968256        -2.458080
 H        -0.020176        -2.036428        -3.358635
 H         0.402577        -2.571512        -1.738645
 H         0.186439         0.323996        -2.685292
