19
Iteration:  2143charge 0 multiplicity 1
 C         0.266214         0.216215         0.412296
 C         1.291442        -0.197207        -0.555612
 O         2.252623        -1.162499        -0.267830
 C         2.649351         0.070257        -0.975475
 C         2.438262        -0.183612        -2.446578
 C         3.009809        -1.502496        -3.009698
 O         1.826295        -2.398209        -3.065270
 C         0.628028        -1.666769        -2.886794
 C         0.877591        -0.399231        -2.132860
 H         0.112865         1.312748         0.312721
 H        -0.562490        -0.424752         0.290501
 H         0.618199         0.208022         1.525344
 H         3.349610         0.652161        -0.513613
 H         2.707579         0.753460        -2.940351
 H         3.416985        -1.464865        -3.996745
 H         3.679451        -2.055097        -2.344482
 H         0.395481        -1.310021        -3.874780
 H        -0.201671        -2.179407        -2.617084
 H         0.246338         0.301627        -2.596450
