19
Iteration:  4195charge 0 multiplicity 1
 C         0.104556         0.253125         0.315078
 C         1.233473        -0.192783        -0.587919
 O         1.971722        -1.445142        -0.219380
 C         2.722749        -0.285886        -0.630857
 C         2.798042        -0.400202        -2.106107
 C         2.912988        -1.721273        -2.953184
 O         1.678459        -2.064084        -3.524486
 C         0.666791        -1.215098        -3.012231
 C         1.249891        -0.134550        -2.166398
 H         0.364466         0.058612         1.343483
 H        -0.184598         1.305070         0.237178
 H        -0.903326        -0.201917        -0.005601
 H         3.633781        -0.015335         0.094456
 H         3.392334         0.441584        -2.519138
 H         3.598104        -1.713862        -3.848421
 H         3.241537        -2.609006        -2.276581
 H         0.122313        -0.831707        -3.873208
 H         0.107249        -1.912019        -2.305698
 H         0.906761         0.858345        -2.480389
