19
Iteration:   311
 C         0.296588         0.184993         0.473880
 C         1.218791        -0.110019        -0.671616
 O         2.124614        -1.231542        -0.412905
 C         2.677045         0.013858        -0.988635
 C         2.464833        -0.168272        -2.447589
 C         3.004244        -1.551613        -2.878884
 O         1.831712        -2.295502        -3.205245
 C         0.671271        -1.708524        -2.654294
 C         0.980282        -0.304192        -2.171184
 H        -0.347186         0.987109         0.082189
 H        -0.465804        -0.607946         0.741177
 H         0.887227         0.640057         1.254022
 H         3.515887         0.645622        -0.420050
 H         2.768644         0.619700        -3.133230
 H         3.638286        -1.530190        -3.775359
 H         3.443341        -2.000832        -1.979973
 H        -0.035647        -1.588373        -3.447213
 H         0.215285        -2.433678        -1.915086
 H         0.272751         0.300775        -2.692011
