19
Iteration:  4806
 C         0.151695         0.410968         0.232534
 C         1.262500        -0.254240        -0.650334
 O         1.753924        -1.562684        -0.166861
 C         2.729632        -0.585721        -0.530533
 C         2.737484        -0.350151        -2.190467
 C         2.971615        -1.477745        -3.139854
 O         1.743929        -2.148801        -3.211328
 C         0.724316        -1.173929        -3.046535
 C         1.252531        -0.108182        -2.182094
 H         0.269596         0.058798         1.356018
 H         0.279052         1.422944         0.188076
 H        -0.896271         0.198031        -0.209510
 H         3.662968        -0.341526         0.183303
 H         3.239052         0.498291        -2.423290
 H         3.422333        -0.978549        -3.990716
 H         3.746368        -2.253010        -2.933513
 H         0.364776        -0.957821        -4.158797
 H         0.016185        -1.855127        -2.612988
 H         0.908998         0.919473        -2.479742
