19
Iteration:  4617
 C         0.264991         0.365179         0.345508
 C         1.185771        -0.269108        -0.616224
 O         1.772930        -1.540832        -0.227907
 C         2.607977        -0.444551        -0.631031
 C         2.698872        -0.284288        -2.234586
 C         3.058949        -1.548291        -3.018816
 O         1.761845        -2.155346        -3.287955
 C         0.695568        -1.265066        -3.073395
 C         1.229330        -0.110257        -2.212304
 H         0.255959        -0.086941         1.312853
 H         0.650178         1.500916         0.555851
 H        -0.795754         0.505914        -0.037694
 H         3.398206        -0.252751         0.073985
 H         3.450613         0.458949        -2.518307
 H         3.771394        -1.388910        -3.882613
 H         3.581072        -2.306698        -2.365637
 H         0.314562        -0.886358        -3.973250
 H        -0.069557        -1.819144        -2.496638
 H         0.922647         0.950670        -2.356039
