19
Iteration:  2589
 C         0.294024         0.403724         0.468045
 C         1.160625        -0.134665        -0.642281
 O         2.027318        -1.280934        -0.334223
 C         2.661392        -0.125908        -0.886639
 C         2.436656        -0.178887        -2.452826
 C         2.971075        -1.286539        -3.215306
 O         1.985272        -2.411787        -3.073335
 C         0.714994        -1.847447        -2.652220
 C         0.991944        -0.368238        -2.143632
 H         0.040249         1.555443         0.402306
 H        -0.658183        -0.046706         0.537576
 H         0.905443         0.504195         1.439559
 H         3.430913         0.474304        -0.382135
 H         2.596337         0.825187        -2.990188
 H         2.998046        -1.034373        -4.295053
 H         3.953343        -1.755868        -2.917507
 H         0.169625        -1.794443        -3.584297
 H         0.256859        -2.593316        -2.059668
 H         0.288261         0.266824        -2.556123
