19
Iteration:   905charge 0 multiplicity 1
 C         0.335651         0.114549         0.509444
 C         1.222161        -0.238804        -0.653726
 O         2.383493        -1.121313        -0.306467
 C         2.678411         0.081876        -0.942698
 C         2.478202        -0.151246        -2.530212
 C         2.844032        -1.573607        -2.856676
 O         1.764749        -2.382468        -2.978324
 C         0.613270        -1.622247        -3.036053
 C         0.906167        -0.324331        -2.177199
 H        -0.668841         0.543206         0.070220
 H        -0.031318        -0.815266         1.035413
 H         0.800913         0.827457         1.355718
 H         3.281521         0.759221        -0.460348
 H         2.836740         0.634151        -3.262010
 H         3.494857        -1.618471        -3.786943
 H         3.616173        -1.936281        -2.193922
 H         0.245929        -1.246199        -3.952979
 H        -0.231478        -2.235274        -2.717333
 H         0.304124         0.585047        -2.508555
