19
Iteration:  3684
 C         0.256547         0.343172         0.470840
 C         1.202193        -0.138801        -0.582291
 O         2.133964        -1.385712        -0.199400
 C         2.652387        -0.218842        -0.722573
 C         2.621967        -0.396881        -2.274799
 C         2.966697        -1.677219        -2.804974
 O         1.782178        -1.992320        -3.649670
 C         0.605877        -1.527590        -2.954688
 C         1.013567        -0.244258        -2.192803
 H         0.549851         0.085224         1.516885
 H         0.360688         1.451289         0.420875
 H        -0.820179         0.082816         0.246443
 H         3.501377         0.476831        -0.238460
 H         3.001105         0.408012        -2.932706
 H         3.831552        -1.780072        -3.435646
 H         2.989533        -2.435686        -2.073846
 H        -0.193800        -1.451875        -3.675008
 H         0.454435        -2.352673        -2.086377
 H         0.782423         0.764664        -2.663349
