19
Iteration:  1427charge 0 multiplicity 1
 C         0.223307         0.256209         0.377739
 C         1.216783        -0.173383        -0.623453
 O         2.156620        -1.099583        -0.187751
 C         2.686408         0.068717        -0.851001
 C         2.622872        -0.281936        -2.413276
 C         2.998996        -1.633225        -3.015150
 O         1.740412        -2.243510        -3.528220
 C         0.672830        -1.783485        -2.573796
 C         0.988461        -0.316992        -2.110996
 H        -0.483281         1.101535         0.080928
 H        -0.372672        -0.606637         0.363910
 H         0.558428         0.412198         1.420710
 H         3.308799         0.858370        -0.254398
 H         2.821960         0.628899        -3.147860
 H         3.696124        -1.438997        -3.852589
 H         3.562311        -2.396247        -2.435549
 H        -0.270503        -1.816803        -3.207458
 H         0.467714        -2.508203        -1.641766
 H         0.393963         0.503632        -2.588570
