19
Iteration:  2781
 C         0.374737         0.148585         0.389147
 C         1.200678        -0.305945        -0.671490
 O         2.321709        -1.202253        -0.331097
 C         2.554286         0.111745        -0.881038
 C         2.460889        -0.137539        -2.421354
 C         2.972913        -1.546325        -2.973366
 O         1.773165        -2.374104        -2.883820
 C         0.617458        -1.581951        -2.982872
 C         0.971695        -0.342165        -2.181059
 H        -0.098709         1.181926         0.158133
 H        -0.410189        -0.695956         0.561797
 H         0.907476         0.389644         1.310218
 H         3.054961         0.926625        -0.351862
 H         2.761673         0.624148        -3.120521
 H         3.168267        -1.352008        -4.055570
 H         3.754308        -2.155258        -2.594920
 H         0.330578        -1.358735        -3.986849
 H        -0.238931        -2.227327        -2.489777
 H         0.375453         0.599036        -2.544528
