19
Iteration:  4648
 C         0.150393         0.374940         0.199256
 C         1.209886        -0.245625        -0.610904
 O         1.921215        -1.494667        -0.241238
 C         2.719961        -0.439811        -0.537195
 C         2.829790        -0.344832        -2.118146
 C         2.949703        -1.555862        -3.012420
 O         1.660679        -2.094721        -3.371910
 C         0.634348        -1.306251        -3.078472
 C         1.267572        -0.205898        -2.085095
 H        -0.118083         0.083525         1.156404
 H         0.325418         1.581005         0.274062
 H        -0.824727         0.349683        -0.295860
 H         3.506863        -0.146194         0.233111
 H         3.629735         0.527452        -2.303047
 H         3.607987        -1.201644        -3.883028
 H         3.625950        -2.295788        -2.578991
 H         0.219349        -0.771658        -4.068756
 H        -0.295028        -1.927188        -2.632697
 H         0.813301         0.770816        -2.402276
