19
Iteration:  3219charge 0 multiplicity 1
 C         0.403761         0.311197         0.520321
 C         1.140080        -0.253165        -0.739730
 O         1.972896        -1.320133        -0.360851
 C         2.621074        -0.173273        -0.824687
 C         2.554816        -0.224801        -2.352879
 C         2.986096        -1.378350        -3.186271
 O         1.914930        -2.294548        -2.870328
 C         0.645155        -1.582024        -2.875681
 C         0.989407        -0.336155        -2.296883
 H         0.508150        -0.394283         1.302065
 H         0.920964         1.229751         0.923568
 H        -0.665932         0.606651         0.101999
 H         3.287062         0.274356        -0.215825
 H         2.852305         0.749790        -2.678455
 H         3.221920        -1.171858        -4.280335
 H         3.944980        -1.787199        -2.738443
 H         0.300042        -1.565868        -3.879669
 H        -0.120516        -2.073731        -2.336990
 H         0.405433         0.469960        -2.651132
