19
Iteration:  4062
 C         0.209956         0.621198         0.256339
 C         1.207701        -0.229214        -0.537973
 O         1.784157        -1.572091        -0.166048
 C         2.668740        -0.416270        -0.548233
 C         2.796189        -0.415561        -2.152222
 C         3.052668        -1.640036        -3.106397
 O         1.747162        -1.738837        -3.755085
 C         0.678251        -1.563680        -2.766814
 C         1.189847        -0.311260        -2.062306
 H         0.324022         0.493718         1.264206
 H         0.327204         1.709988         0.002730
 H        -0.790221         0.143296         0.071141
 H         3.352141        -0.225770         0.204964
 H         3.238856         0.477288        -2.483370
 H         3.720612        -1.509553        -4.015368
 H         3.285663        -2.649619        -2.601577
 H        -0.242930        -1.433040        -3.314347
 H         0.637306        -2.338435        -2.048694
 H         0.943996         0.640417        -2.569117
