19
Iteration:  1512charge 0 multiplicity 1
 C         0.433863         0.489725         0.438850
 C         1.151668        -0.194896        -0.692378
 O         2.000647        -1.386225        -0.251269
 C         2.597865        -0.133961        -0.863859
 C         2.499499        -0.162352        -2.361781
 C         2.858530        -1.312533        -3.324595
 O         2.054125        -2.365096        -2.873881
 C         0.733184        -1.792227        -2.808958
 C         0.887874        -0.343638        -2.222962
 H         0.259029         1.482186         0.176271
 H        -0.554546        -0.005711         0.668898
 H         1.057292         0.257071         1.397926
 H         3.511648         0.312673        -0.310584
 H         2.711917         0.853842        -2.803522
 H         2.567198        -0.955584        -4.323917
 H         3.833228        -1.738240        -3.082538
 H         0.341659        -1.762253        -3.833019
 H         0.199903        -2.480028        -2.248035
 H         0.197004         0.317947        -2.825975
