19
Iteration:  4794charge 0 multiplicity 1
 C         0.210914         0.413987         0.244453
 C         1.191727        -0.283510        -0.560030
 O         1.734565        -1.560215        -0.135689
 C         2.652896        -0.511671        -0.625110
 C         2.828156        -0.342842        -2.117902
 C         3.032057        -1.509104        -3.214935
 O         1.765239        -2.160661        -3.212682
 C         0.689714        -1.230366        -3.099884
 C         1.250668        -0.086772        -2.170954
 H         0.349887         0.175024         1.338922
 H         0.165037         1.431676         0.118389
 H        -0.792274        -0.037960         0.003250
 H         3.465078        -0.281355         0.107649
 H         3.475751         0.458371        -2.276813
 H         3.099643        -1.158453        -4.227429
 H         3.792744        -2.240377        -2.938934
 H         0.442328        -0.649288        -4.083612
 H        -0.261664        -1.643120        -2.731605
 H         0.931460         0.940442        -2.422460
