19
Iteration:   571charge 0 multiplicity 1
 C         0.365784         0.079837         0.430320
 C         1.205008        -0.303788        -0.673969
 O         2.320563        -1.124618        -0.312680
 C         2.603125         0.147102        -0.925029
 C         2.523777        -0.108108        -2.443111
 C         2.939435        -1.567568        -3.008765
 O         1.739992        -2.384477        -2.817925
 C         0.589274        -1.632833        -3.008993
 C         0.956580        -0.352884        -2.194165
 H        -0.023535         1.136403         0.198686
 H        -0.445912        -0.487804         0.496862
 H         1.035539         0.199643         1.299074
 H         3.099490         0.951590        -0.435816
 H         2.640240         0.609283        -3.178430
 H         3.261819        -1.512865        -4.044898
 H         3.624449        -2.082197        -2.323037
 H         0.495226        -1.305885        -4.092533
 H        -0.319447        -2.115287        -2.638071
 H         0.420375         0.480205        -2.522402
