19
Iteration:   488
 C         0.210040         0.451285         0.342742
 C         1.189581        -0.179546        -0.620612
 O         2.195714        -1.273461        -0.311181
 C         2.671229        -0.049966        -0.747974
 C         2.527893        -0.106167        -2.434687
 C         2.968022        -1.448317        -3.189694
 O         1.834399        -2.316202        -3.287185
 C         0.652690        -1.857274        -2.498609
 C         1.000664        -0.398341        -2.210061
 H        -0.576305         0.908699        -0.122028
 H        -0.066499        -0.344090         1.114342
 H         0.606756         1.080288         1.086186
 H         3.404040         0.375175        -0.126915
 H         2.851075         0.758069        -3.048290
 H         3.365252        -1.245714        -4.123132
 H         3.782168        -1.942320        -2.653351
 H        -0.178882        -2.001951        -3.202690
 H         0.397656        -2.497378        -1.621200
 H         0.243695         0.274758        -2.657352
