19
Iteration:  1284
 C         0.314227         0.350808         0.345553
 C         1.229729        -0.188245        -0.709953
 O         1.998522        -1.342691        -0.393404
 C         2.686628        -0.167476        -0.867934
 C         2.544182        -0.063267        -2.370783
 C         2.878604        -1.387331        -3.163278
 O         1.920836        -2.354505        -3.099812
 C         0.711363        -1.763453        -2.501630
 C         0.998465        -0.296666        -2.191579
 H        -0.167470         1.243127        -0.230802
 H        -0.410658        -0.308064         0.719209
 H         0.888749         0.783026         1.315369
 H         3.334754         0.300331        -0.260143
 H         2.750202         0.879838        -2.972315
 H         3.040813        -1.108780        -4.241382
 H         3.769806        -1.772552        -2.687676
 H        -0.068143        -1.871832        -3.272591
 H         0.494458        -2.376617        -1.611315
 H         0.249560         0.437747        -2.581802
