19
Iteration:  3406
 C         0.318805         0.337530         0.427619
 C         1.259123        -0.213128        -0.589877
 O         2.014049        -1.285622        -0.196796
 C         2.684457        -0.130111        -0.814243
 C         2.559984        -0.241966        -2.373798
 C         2.966637        -1.560485        -2.936618
 O         1.790981        -2.166320        -3.491667
 C         0.664118        -1.639365        -2.826017
 C         1.059469        -0.293677        -2.152739
 H         0.330164         1.371358         0.609210
 H        -0.748037         0.155211         0.001909
 H         0.252744        -0.250976         1.507606
 H         3.480075         0.418031        -0.174695
 H         2.953934         0.612159        -2.968311
 H         3.804630        -1.544849        -3.659856
 H         3.344909        -2.181778        -2.106576
 H        -0.316252        -1.576717        -3.481505
 H         0.345237        -2.517604        -2.183493
 H         0.469241         0.516298        -2.579387
