19
Iteration:  2224charge 0 multiplicity 1
 C         0.131064         0.179365         0.360597
 C         1.305731        -0.069337        -0.582741
 O         2.264261        -1.156306        -0.268792
 C         2.725549        -0.000204        -0.922849
 C         2.543249        -0.120573        -2.472342
 C         2.969001        -1.532348        -3.055954
 O         1.796614        -2.379749        -3.102792
 C         0.555436        -1.726259        -2.764418
 C         0.979463        -0.337593        -2.144863
 H        -0.575172         0.758937        -0.125886
 H        -0.369982        -0.909892         0.493675
 H         0.318453         0.414016         1.361474
 H         3.691688         0.585488        -0.374638
 H         2.858519         0.767287        -3.050017
 H         3.346972        -1.275035        -4.020172
 H         3.747104        -2.076668        -2.500556
 H        -0.162844        -1.754989        -3.566387
 H         0.227935        -2.335251        -1.918636
 H         0.384607         0.562634        -2.587739
