19
Iteration:  4775
 C         0.237356         0.415825         0.346618
 C         1.185235        -0.282645        -0.632720
 O         1.721552        -1.535855        -0.279813
 C         2.643758        -0.480920        -0.513518
 C         2.803845        -0.351355        -2.113320
 C         3.003956        -1.499830        -3.137426
 O         1.735118        -2.234496        -3.235132
 C         0.737997        -1.186259        -3.133812
 C         1.249515        -0.168424        -2.178358
 H         0.750656         0.580988         1.437535
 H         0.011498         1.459026         0.017558
 H        -0.776831        -0.118741         0.582289
 H         3.488322        -0.052159         0.240672
 H         3.313470         0.535329        -2.511306
 H         3.184691        -0.905111        -4.062442
 H         3.823071        -2.235796        -2.882337
 H         0.659580        -0.673269        -4.158283
 H        -0.165128        -1.684581        -2.910554
 H         0.997419         0.914286        -2.388324
