19
Iteration:  3247
 C         0.327019         0.402780         0.443971
 C         1.226024        -0.205280        -0.598079
 O         1.975483        -1.421072        -0.341680
 C         2.647719        -0.114818        -0.813412
 C         2.512841        -0.150541        -2.393100
 C         2.929337        -1.411976        -3.126638
 O         1.888685        -2.364202        -3.058296
 C         0.750823        -1.651098        -2.846496
 C         1.003456        -0.291768        -2.208647
 H         0.510402        -0.198855         1.452727
 H         0.521582         1.435073         0.739214
 H        -0.611378         0.440094         0.058254
 H         3.497917         0.126359        -0.064428
 H         2.870891         0.775290        -2.910252
 H         3.186805        -1.128003        -4.147145
 H         3.840701        -1.745951        -2.681050
 H         0.259188        -1.470054        -3.936192
 H        -0.032196        -2.244258        -2.246853
 H         0.308816         0.507267        -2.581100
