19
Iteration:  3753charge 0 multiplicity 1
 C         0.255594         0.591258         0.300108
 C         1.256018        -0.224095        -0.539489
 O         1.845731        -1.479766        -0.159407
 C         2.733171        -0.393681        -0.693183
 C         2.691167        -0.352825        -2.228283
 C         3.020402        -1.515522        -3.112207
 O         1.729280        -1.917817        -3.715256
 C         0.717898        -1.685000        -2.705748
 C         1.098251        -0.323934        -2.009613
 H         0.585619         1.581508         0.757131
 H        -0.481483         0.959982        -0.436649
 H        -0.305843         0.065040         0.992979
 H         3.433602        -0.132988        -0.002810
 H         2.971076         0.640208        -2.515227
 H         3.670283        -1.278900        -3.936121
 H         3.441412        -2.281997        -2.534389
 H        -0.223953        -1.591279        -3.260949
 H         0.715492        -2.483686        -1.840382
 H         0.664529         0.597889        -2.606898
