19
Iteration:  2202
 C         0.216664         0.033949         0.368658
 C         1.229044        -0.128141        -0.675582
 O         2.223915        -1.117944        -0.318099
 C         2.709227         0.112363        -0.971672
 C         2.512064        -0.189796        -2.464314
 C         2.970559        -1.595937        -2.943052
 O         1.782485        -2.368432        -3.097628
 C         0.600628        -1.651863        -2.714804
 C         1.017389        -0.269638        -2.173939
 H        -0.294496         0.912892         0.229654
 H        -0.636227        -0.787435         0.597962
 H         0.817787         0.007286         1.220114
 H         3.491423         0.800710        -0.286316
 H         2.776315         0.587304        -3.191986
 H         3.471287        -1.470673        -3.870658
 H         3.676856        -1.893050        -2.158439
 H         0.064725        -1.658281        -3.656598
 H        -0.015321        -2.225717        -1.962565
 H         0.430529         0.653384        -2.603068
