19
Iteration:  3268charge 0 multiplicity 1
 C         0.224114         0.376249         0.328810
 C         1.233848        -0.217707        -0.594224
 O         2.055967        -1.324363        -0.268514
 C         2.709226        -0.247236        -0.842716
 C         2.582589        -0.200154        -2.327941
 C         3.050759        -1.392741        -3.159354
 O         1.879893        -2.310164        -3.129143
 C         0.563495        -1.637138        -2.810735
 C         0.949477        -0.315911        -2.090351
 H         0.614142         0.153962         1.352148
 H         0.352386         1.452654         0.281828
 H        -0.724423         0.163199        -0.014004
 H         3.554868         0.294507        -0.248326
 H         2.778378         0.844469        -2.728063
 H         3.239188        -1.157554        -4.195332
 H         3.953137        -1.912839        -2.803011
 H        -0.076540        -1.386364        -3.789420
 H        -0.003752        -2.503241        -2.314848
 H         0.524870         0.680747        -2.441469
