19
Iteration:  1418
 C         0.188086         0.193685         0.382595
 C         1.269047        -0.094188        -0.646179
 O         2.187455        -1.072352        -0.153098
 C         2.686558         0.064098        -0.871925
 C         2.577602        -0.298488        -2.408567
 C         2.988263        -1.679298        -2.987144
 O         1.769171        -2.158892        -3.562630
 C         0.622541        -1.769830        -2.554637
 C         0.995240        -0.390403        -2.153225
 H        -0.361599         1.190462        -0.008967
 H        -0.548813        -0.566143         0.572799
 H         0.613644         0.263635         1.339569
 H         3.437700         0.751571        -0.282531
 H         2.835835         0.498812        -3.090295
 H         3.687340        -1.649362        -3.833806
 H         3.250271        -2.202057        -2.068681
 H        -0.369990        -1.759047        -3.070728
 H         0.777094        -2.632557        -1.823153
 H         0.396333         0.381693        -2.653394
