19
Iteration:   672charge 0 multiplicity 1
 C         0.220602         0.348690         0.314072
 C         1.235872        -0.137303        -0.590419
 O         2.091047        -1.230609        -0.253144
 C         2.702774        -0.094093        -0.911883
 C         2.489477        -0.159446        -2.379195
 C         2.942654        -1.397501        -3.241246
 O         1.889861        -2.413715        -3.156952
 C         0.703892        -1.810959        -2.567451
 C         1.008143        -0.339922        -2.109752
 H        -0.280615         1.183144        -0.335187
 H        -0.508536        -0.308007         0.494364
 H         0.587357         0.602502         1.277922
 H         3.654004         0.377635        -0.444068
 H         2.755531         0.812028        -2.893368
 H         2.949806        -1.040373        -4.213172
 H         3.945633        -1.763538        -3.117228
 H        -0.186848        -1.521006        -3.240731
 H         0.298522        -2.597495        -1.867850
 H         0.402615         0.514622        -2.490472
