19
Iteration:  4145
 C         0.337257         0.308159         0.370282
 C         1.247254        -0.304652        -0.636277
 O         1.932099        -1.500441        -0.183208
 C         2.681625        -0.404194        -0.609536
 C         2.664265        -0.290656        -2.210244
 C         2.897862        -1.719121        -2.707454
 O         1.776894        -1.992764        -3.602629
 C         0.624554        -1.251177        -3.112052
 C         1.163219        -0.091208        -2.218993
 H         0.930714         0.827864         1.259021
 H        -0.436663         0.943932        -0.045342
 H        -0.367084        -0.415897         0.671955
 H         3.137601         0.237347         0.143999
 H         3.427429         0.445333        -2.618606
 H         3.762068        -1.844425        -3.340070
 H         2.938134        -2.437123        -1.939658
 H         0.127404        -0.808088        -4.052787
 H        -0.123866        -2.032199        -2.633995
 H         0.812683         0.878143        -2.618898
