19
Iteration:  2128charge 0 multiplicity 1
 C         0.222895         0.306823         0.442306
 C         1.207886        -0.231215        -0.649882
 O         2.286606        -1.169937        -0.211954
 C         2.702761         0.001101        -0.880680
 C         2.476295        -0.152722        -2.413879
 C         2.894306        -1.467935        -3.102205
 O         1.850298        -2.435329        -3.035983
 C         0.612557        -1.698242        -2.961483
 C         0.977072        -0.398927        -2.115390
 H        -0.218851         1.348053         0.102369
 H        -0.691430        -0.336220         0.514308
 H         0.696983         0.293684         1.405461
 H         3.530388         0.598213        -0.392572
 H         2.654468         0.697863        -3.124625
 H         3.210164        -1.186504        -4.192941
 H         3.858221        -1.808747        -2.650887
 H         0.252269        -1.341892        -3.963793
 H        -0.008425        -2.519480        -2.441600
 H         0.355608         0.497301        -2.331848
