19
Iteration:  2233
 C         0.161385         0.192508         0.309742
 C         1.291868        -0.107765        -0.588340
 O         2.264205        -1.206857        -0.230219
 C         2.737814         0.031972        -0.908638
 C         2.513388        -0.186045        -2.406045
 C         2.949688        -1.487800        -3.118782
 O         1.818643        -2.373166        -3.128998
 C         0.571685        -1.752279        -2.713150
 C         0.982161        -0.292636        -2.156939
 H        -0.509391         0.804475        -0.214419
 H        -0.414830        -0.796675         0.528056
 H         0.431190         0.747077         1.200130
 H         3.522622         0.746814        -0.202630
 H         2.782620         0.641925        -3.038992
 H         3.197445        -1.340020        -4.136478
 H         3.790149        -1.897700        -2.544868
 H        -0.064500        -1.818353        -3.577004
 H         0.078921        -2.301890        -2.000483
 H         0.322195         0.590359        -2.503467
