19
Iteration:  2487charge 0 multiplicity 1
 C         0.325105         0.080001         0.502789
 C         1.212130        -0.291485        -0.666908
 O         2.264040        -1.133239        -0.297416
 C         2.611886         0.106282        -0.933391
 C         2.504015        -0.132008        -2.497295
 C         2.969320        -1.547343        -2.915275
 O         1.802434        -2.399311        -2.945631
 C         0.587734        -1.601678        -2.924904
 C         0.947259        -0.259129        -2.308235
 H        -0.417620         0.748633         0.156280
 H        -0.196403        -0.804560         1.076577
 H         0.977379         0.441068         1.299859
 H         3.227690         0.770886        -0.389926
 H         2.828839         0.662499        -3.160028
 H         3.271609        -1.508562        -3.990795
 H         3.765182        -2.024040        -2.360454
 H         0.170172        -1.619680        -3.968271
 H        -0.056304        -2.182749        -2.373582
 H         0.428022         0.655101        -2.704552
