19
Iteration:  4696charge 0 multiplicity 1
 C         0.184185         0.310568         0.310841
 C         1.223905        -0.179780        -0.647430
 O         1.766170        -1.525577        -0.346725
 C         2.705699        -0.412699        -0.553094
 C         2.817524        -0.303322        -2.141493
 C         3.020466        -1.610627        -2.983394
 O         1.708338        -2.135948        -3.310087
 C         0.637349        -1.223434        -3.018333
 C         1.285470        -0.120326        -2.249164
 H         0.704608         0.329641         1.369147
 H        -0.237213         1.307700         0.224319
 H        -0.704316        -0.411214         0.514434
 H         3.425642        -0.347746         0.272132
 H         3.248431         0.548204        -2.513489
 H         3.703695        -1.342559        -3.852074
 H         3.433022        -2.433225        -2.351633
 H         0.160781        -0.877358        -3.910980
 H        -0.093592        -1.745161        -2.455051
 H         1.208391         0.897580        -2.638978
