19
Iteration:  4559
 C         0.304392         0.435658         0.411930
 C         1.189319        -0.257650        -0.693999
 O         1.606740        -1.642526        -0.374003
 C         2.630204        -0.531532        -0.677782
 C         2.781079        -0.265859        -2.167752
 C         3.131145        -1.450720        -3.075620
 O         1.787151        -2.227091        -3.044813
 C         0.703260        -1.206908        -3.051309
 C         1.185426        -0.074787        -2.301847
 H         0.977570         0.397524         1.332477
 H         0.037521         1.613010         0.209194
 H        -0.549484        -0.175252         0.665759
 H         3.449868        -0.380226         0.114393
 H         3.563239         0.593459        -2.337820
 H         3.349518        -1.074210        -4.145651
 H         3.774742        -2.273594        -2.777056
 H         0.310322        -0.999109        -4.013386
 H        -0.201463        -1.675732        -2.501677
 H         0.818776         0.964972        -2.397475
