19
Iteration:   845charge 0 multiplicity 1
 C         0.275165         0.075317         0.380565
 C         1.220619        -0.195401        -0.706073
 O         2.323306        -1.164723        -0.312885
 C         2.648136         0.081737        -0.901900
 C         2.544064        -0.183704        -2.454469
 C         2.907076        -1.481955        -3.106073
 O         1.812892        -2.396611        -2.795170
 C         0.535497        -1.612093        -2.867585
 C         0.962330        -0.296318        -2.214782
 H        -0.264675         0.975521         0.168214
 H        -0.424577        -0.802021         0.385278
 H         0.739279         0.178686         1.317860
 H         3.634287         0.533844        -0.493926
 H         2.829518         0.650247        -3.047021
 H         2.941654        -1.279693        -4.164420
 H         3.782084        -1.890117        -2.580378
 H         0.025647        -1.483992        -3.839533
 H         0.004698        -2.229267        -2.163028
 H         0.393234         0.549731        -2.626182
