19
Iteration:  1555
 C         0.270799         0.429890         0.364060
 C         1.239085        -0.144402        -0.592210
 O         2.118686        -1.353825        -0.362272
 C         2.666024        -0.165830        -0.875781
 C         2.435486        -0.188954        -2.443917
 C         2.926902        -1.348452        -3.212107
 O         1.972122        -2.316309        -2.967904
 C         0.704105        -1.804955        -2.639246
 C         0.917363        -0.325783        -2.220156
 H         0.217063         1.474252         0.242732
 H        -0.787803        -0.017581         0.249330
 H         0.606112         0.158014         1.491469
 H         3.566497         0.259459        -0.241987
 H         2.863137         0.693545        -2.783506
 H         2.685190        -1.051681        -4.293602
 H         3.906569        -1.753495        -2.916321
 H         0.059562        -1.613808        -3.589079
 H         0.209294        -2.450018        -1.973147
 H         0.259103         0.469478        -2.693690
