19
Iteration:  3549
 C         0.340723         0.468693         0.459370
 C         1.205240        -0.182329        -0.609279
 O         1.859229        -1.408992        -0.344895
 C         2.659900        -0.207699        -0.753231
 C         2.639973        -0.233573        -2.285255
 C         3.012090        -1.513309        -3.014063
 O         1.850320        -2.134782        -3.444017
 C         0.661516        -1.688698        -2.810400
 C         1.037111        -0.347959        -2.131220
 H        -0.579452         0.032272         0.539875
 H         0.939983         0.568650         1.362188
 H         0.182465         1.580885         0.236017
 H         3.450224         0.007303        -0.156388
 H         3.115602         0.667375        -2.740708
 H         3.630783        -1.269824        -3.893129
 H         3.553496        -2.178941        -2.370913
 H        -0.171168        -1.380520        -3.483755
 H         0.404679        -2.380517        -1.944314
 H         0.381808         0.379259        -2.438440
