19
Iteration:  3786
 C         0.342999         0.586247         0.359737
 C         1.170853        -0.240579        -0.613006
 O         1.856916        -1.464622        -0.122872
 C         2.642098        -0.430384        -0.686532
 C         2.690906        -0.356112        -2.170538
 C         3.034915        -1.484134        -3.091468
 O         1.739657        -1.952122        -3.669955
 C         0.721060        -1.659254        -2.770653
 C         1.086695        -0.297039        -2.130683
 H         0.725300         1.678155         0.482495
 H        -0.661095         0.438285        -0.066900
 H         0.391288         0.297646         1.344577
 H         3.249473         0.118926        -0.060980
 H         3.087366         0.620991        -2.391583
 H         3.604380        -1.241426        -3.972643
 H         3.474955        -2.325838        -2.671612
 H        -0.167653        -1.756582        -3.426903
 H         0.642702        -2.470528        -1.898581
 H         0.770482         0.751688        -2.653111
