19
Iteration:   565
 C         0.340701         0.087236         0.432420
 C         1.227935        -0.310162        -0.687976
 O         2.316113        -1.123539        -0.313545
 C         2.606688         0.201944        -0.893268
 C         2.560170        -0.167549        -2.427519
 C         2.929304        -1.564730        -3.023748
 O         1.762155        -2.436490        -2.847915
 C         0.575994        -1.585686        -2.983959
 C         0.911093        -0.346758        -2.210877
 H        -0.081432         1.117010         0.258029
 H        -0.597907        -0.660428         0.644190
 H         1.018022         0.374804         1.249920
 H         3.330122         0.942694        -0.457252
 H         2.729775         0.700126        -3.182269
 H         3.271719        -1.446855        -4.118089
 H         3.637155        -2.061474        -2.356682
 H         0.389635        -1.257816        -4.004678
 H        -0.202351        -2.275922        -2.576850
 H         0.382922         0.623420        -2.550099
