19
Iteration:  2458charge 0 multiplicity 1
 C         0.305356         0.166055         0.444010
 C         1.243534        -0.238385        -0.638850
 O         2.303560        -1.184562        -0.365307
 C         2.643222         0.089165        -0.963684
 C         2.457248        -0.123455        -2.442364
 C         3.012017        -1.491650        -2.789210
 O         1.748442        -2.412736        -3.072532
 C         0.628617        -1.645320        -2.923858
 C         0.891699        -0.358458        -2.171230
 H        -0.617385         0.724989         0.012265
 H         0.092574        -0.627698         0.981413
 H         0.908213         0.768924         1.239083
 H         3.357023         0.659449        -0.479661
 H         2.681649         0.717250        -3.167016
 H         3.327433        -1.361463        -3.840834
 H         3.769908        -2.050097        -2.182379
 H         0.310481        -1.244601        -3.919433
 H        -0.227515        -2.352323        -2.506433
 H         0.337023         0.415818        -2.534634
