19
Iteration:  3110charge 0 multiplicity 1
 C         0.220248         0.236842         0.455788
 C         1.207837        -0.168729        -0.585300
 O         2.108360        -1.204056        -0.297446
 C         2.742091         0.003272        -0.899658
 C         2.567398        -0.191693        -2.425735
 C         3.088447        -1.526236        -3.023642
 O         1.790571        -2.328802        -3.274288
 C         0.610764        -1.689787        -2.754556
 C         0.962041        -0.350034        -2.114911
 H        -0.703116         0.046828         0.057063
 H         0.313645        -0.087960         1.517466
 H         0.263199         1.419566         0.609838
 H         3.404384         0.515716        -0.297021
 H         2.708029         0.709525        -3.023958
 H         3.496697        -1.480078        -4.003311
 H         3.728520        -2.279269        -2.426722
 H         0.047983        -1.417016        -3.717148
 H         0.046827        -2.372169        -2.171240
 H         0.475613         0.576982        -2.451771
