19
Iteration:  3884charge 0 multiplicity 1
 C         0.153370         0.255976         0.302594
 C         1.260982        -0.187962        -0.608503
 O         2.048883        -1.328896        -0.136351
 C         2.819785        -0.294900        -0.659772
 C         2.708937        -0.331574        -2.202881
 C         2.927224        -1.735596        -2.846904
 O         1.686310        -1.960162        -3.619824
 C         0.597289        -1.432782        -2.982436
 C         1.169051        -0.193901        -2.159115
 H        -0.897538         0.261135        -0.245123
 H         0.199007        -0.532627         1.082066
 H         0.321147         1.217373         0.761797
 H         3.585578         0.144360        -0.022174
 H         3.099496         0.614107        -2.635901
 H         3.698828        -1.976825        -3.614699
 H         2.940599        -2.507043        -1.972776
 H        -0.258904        -1.273859        -3.625878
 H         0.114747        -2.161007        -2.278702
 H         0.744117         0.769371        -2.703671
