19
Iteration:  3430
 C         0.182459         0.356176         0.349292
 C         1.223080        -0.140936        -0.611572
 O         2.136146        -1.235956        -0.154005
 C         2.707842        -0.112276        -0.672080
 C         2.614683        -0.364808        -2.218885
 C         2.978450        -1.670436        -3.052613
 O         1.726355        -2.020951        -3.618439
 C         0.629184        -1.722060        -2.769007
 C         1.081491        -0.335784        -2.156988
 H        -0.001654         1.395930         0.223760
 H        -0.809150        -0.153522         0.358199
 H         0.594015         0.220892         1.497374
 H         3.463900         0.544160        -0.287492
 H         3.032411         0.544595        -2.739678
 H         3.712046        -1.520002        -3.886068
 H         3.453238        -2.481803        -2.394765
 H        -0.230104        -1.763524        -3.434874
 H         0.333097        -2.471744        -1.996716
 H         0.593417         0.556485        -2.636393
