19
Iteration:   266
 C         0.295640         0.303574         0.352698
 C         1.227774        -0.252509        -0.648653
 O         2.200267        -1.205953        -0.198847
 C         2.669127         0.017504        -0.825414
 C         2.505185        -0.172186        -2.404575
 C         2.914176        -1.454101        -3.103760
 O         1.819171        -2.422214        -3.133422
 C         0.640614        -1.682585        -2.845065
 C         0.988589        -0.382182        -2.139427
 H        -0.760236         0.547805         0.074551
 H         0.082452        -0.440936         1.077117
 H         0.822131         1.158497         0.839192
 H         3.537747         0.620405        -0.193405
 H         2.676897         0.735332        -3.009248
 H         3.127236        -1.143421        -4.153822
 H         3.700812        -1.937873        -2.573641
 H         0.188781        -1.390011        -3.773010
 H        -0.107334        -2.239047        -2.260786
 H         0.479867         0.473045        -2.563022
