19
Iteration:  3024
 C         0.168541         0.366689         0.370077
 C         1.276513        -0.128262        -0.637009
 O         2.184437        -1.100485        -0.039674
 C         2.717008        -0.050238        -0.804560
 C         2.534756        -0.292546        -2.346935
 C         2.971838        -1.542968        -3.063473
 O         1.765707        -2.134249        -3.606173
 C         0.685691        -1.889772        -2.674196
 C         0.938892        -0.472012        -2.174696
 H        -0.359376         1.244674         0.107901
 H        -0.421030        -0.549751         0.597413
 H         0.769441         0.613530         1.390641
 H         3.477693         0.446435        -0.322251
 H         2.746914         0.567423        -3.004876
 H         3.671951        -1.332459        -3.838809
 H         3.440043        -2.198211        -2.311563
 H        -0.199995        -1.973080        -3.141118
 H         0.642430        -2.502854        -1.736267
 H         0.458964         0.430016        -2.676678
