19
Iteration:  1142
 C         0.213688         0.151547         0.417522
 C         1.238879        -0.124155        -0.691302
 O         2.222125        -1.126800        -0.268726
 C         2.679360         0.026995        -0.875185
 C         2.538471        -0.211903        -2.473107
 C         2.946438        -1.638482        -2.924566
 O         1.762837        -2.244906        -3.290248
 C         0.613770        -1.763770        -2.629404
 C         1.081930        -0.237081        -2.271508
 H        -0.673601         0.875860         0.076267
 H        -0.141213        -0.756502         0.795588
 H         0.793028         0.439180         1.428783
 H         3.276206         0.593383        -0.301117
 H         2.695321         0.671589        -3.148709
 H         3.637248        -1.639487        -3.844435
 H         3.341960        -2.241152        -2.090009
 H        -0.185875        -1.873800        -3.407808
 H         0.364326        -2.203888        -1.710502
 H         0.337028         0.525424        -2.721346
