19
Iteration:  4887
 C         0.328397         0.340725         0.456750
 C         1.150098        -0.210971        -0.608257
 O         1.676713        -1.466606        -0.402545
 C         2.683995        -0.436738        -0.584909
 C         2.721441        -0.349489        -2.199678
 C         3.045084        -1.647898        -2.918577
 O         1.808481        -2.136299        -3.355548
 C         0.677388        -1.250191        -3.062880
 C         1.218228        -0.083799        -2.209662
 H         0.639082         0.032705         1.394430
 H         0.220914         1.546637         0.333330
 H        -0.640970        -0.120337         0.301854
 H         3.338211        -0.191366         0.150197
 H         3.332710         0.591324        -2.451744
 H         3.686264        -1.436011        -3.735225
 H         3.507012        -2.378160        -2.193703
 H         0.309045        -0.876180        -4.095017
 H        -0.109419        -1.894114        -2.695864
 H         0.992375         0.897477        -2.587998
