19
Iteration:  1647
 C         0.309242         0.255773         0.417990
 C         1.183495        -0.212555        -0.632123
 O         2.293952        -1.066049        -0.134055
 C         2.649776         0.110165        -0.922299
 C         2.504642        -0.298946        -2.324872
 C         2.919386        -1.687565        -2.825463
 O         1.770974        -2.089868        -3.637376
 C         0.630535        -1.827071        -2.733655
 C         0.973835        -0.425240        -2.170162
 H        -0.630735         0.924654         0.112808
 H        -0.079912        -0.553102         0.966806
 H         0.872936         0.818439         1.057337
 H         3.313213         0.795033        -0.559698
 H         2.894625         0.576538        -3.040061
 H         3.808165        -1.768799        -3.396720
 H         2.855983        -2.225701        -1.862365
 H        -0.260527        -1.907497        -3.248448
 H         0.661764        -2.565981        -1.940911
 H         0.427232         0.310602        -2.701647
