19
Iteration:  3385charge 0 multiplicity 1
 C         0.302439         0.405492         0.446175
 C         1.189488        -0.232722        -0.680415
 O         2.129209        -1.412385        -0.350004
 C         2.651866        -0.101760        -0.806661
 C         2.577149        -0.142699        -2.299580
 C         3.007718        -1.560687        -2.851321
 O         1.836277        -2.241834        -3.416989
 C         0.582645        -1.612469        -2.799042
 C         0.960742        -0.250786        -2.194380
 H         0.729148         1.302595         0.711187
 H        -0.797347         0.579322         0.253509
 H         0.315736        -0.390405         1.351070
 H         3.451369         0.180368        -0.050085
 H         2.933061         0.750058        -2.874647
 H         3.762897        -1.464564        -3.679653
 H         3.467807        -2.236790        -2.074340
 H        -0.231223        -1.592358        -3.581111
 H         0.220310        -2.361808        -2.093991
 H         0.384282         0.519298        -2.709159
