19
Iteration:   805
 C         0.162251         0.309283         0.304983
 C         1.240443        -0.192137        -0.621796
 O         2.242528        -1.241579        -0.327121
 C         2.716935        -0.058844        -0.898758
 C         2.476297        -0.165016        -2.417104
 C         2.905115        -1.417309        -3.222216
 O         1.918771        -2.349381        -3.007551
 C         0.632875        -1.786765        -2.560059
 C         0.963945        -0.315123        -2.175305
 H        -0.051159         1.492048         0.235291
 H        -0.735810        -0.240091         0.052382
 H         0.441383         0.157649         1.467017
 H         3.566449         0.230618        -0.338556
 H         2.649941         0.782831        -3.036307
 H         2.861364        -1.112764        -4.363750
 H         3.901159        -1.866954        -3.033681
 H        -0.028751        -1.848962        -3.470445
 H         0.126861        -2.432989        -1.770315
 H         0.472012         0.672620        -2.524844
