19
Iteration:   321charge 0 multiplicity 1
 C         0.317033         0.214347         0.456382
 C         1.262936        -0.111420        -0.634849
 O         2.108219        -1.176501        -0.372833
 C         2.657432         0.047869        -0.915125
 C         2.537422        -0.097542        -2.479708
 C         2.965203        -1.590881        -2.897602
 O         1.841176        -2.342046        -3.273513
 C         0.609168        -1.784015        -2.676465
 C         0.949254        -0.323895        -2.202065
 H        -0.347806         1.125461         0.220980
 H        -0.309759        -0.700734         0.493661
 H         0.698145         0.277716         1.517522
 H         3.510590         0.665789        -0.293277
 H         2.906553         0.795807        -2.993729
 H         3.698995        -1.547144        -3.765815
 H         3.544902        -2.069276        -2.131574
 H        -0.147786        -1.816318        -3.447655
 H         0.316954        -2.281881        -1.730409
 H         0.306070         0.469000        -2.575273
