19
Iteration:  2798charge 0 multiplicity 1
 C         0.215878         0.129838         0.482497
 C         1.203770        -0.298463        -0.637573
 O         2.302232        -1.109062        -0.253026
 C         2.710002         0.145854        -0.954122
 C         2.548751        -0.204949        -2.440777
 C         2.906265        -1.556096        -3.051668
 O         1.785200        -2.421826        -2.972043
 C         0.597940        -1.587779        -2.962521
 C         0.972271        -0.364287        -2.179228
 H        -0.491925         0.890614         0.100907
 H        -0.435484        -0.640251         0.817475
 H         0.843631         0.562419         1.252391
 H         3.438263         0.672930        -0.360723
 H         2.716884         0.774614        -2.946666
 H         3.232251        -1.402705        -4.093092
 H         3.745539        -1.897115        -2.388077
 H         0.392637        -1.129267        -4.019623
 H        -0.214978        -2.162666        -2.668672
 H         0.469739         0.522322        -2.392114
