19
Iteration:  4368
 C         0.203957         0.444860         0.227424
 C         1.178497        -0.243493        -0.596109
 O         1.798926        -1.448545        -0.103477
 C         2.747515        -0.384315        -0.559889
 C         2.770001        -0.443696        -2.103155
 C         2.960550        -1.701094        -2.976242
 O         1.774250        -1.827833        -3.816883
 C         0.668415        -1.436182        -2.888025
 C         1.252424        -0.238280        -2.096468
 H         0.472603         0.693942         1.256386
 H        -0.102025         1.411451        -0.241976
 H        -0.781042        -0.163281         0.428276
 H         3.604496        -0.049637         0.216315
 H         3.287872         0.475069        -2.297799
 H         3.848368        -1.825618        -3.643158
 H         2.959716        -2.576823        -2.291316
 H        -0.257477        -1.139923        -3.293064
 H         0.395295        -2.254921        -2.194902
 H         0.966522         0.754172        -2.548484
