19
Iteration:   441charge 0 multiplicity 1
 C         0.313950         0.577516         0.460068
 C         1.151009        -0.091534        -0.672872
 O         2.110550        -1.198010        -0.053752
 C         2.627834        -0.098180        -0.859686
 C         2.461540        -0.205559        -2.375078
 C         3.022366        -1.440657        -3.121768
 O         1.808024        -2.225269        -3.604085
 C         0.798381        -2.056495        -2.645416
 C         0.897386        -0.523514        -2.109681
 H         0.058837         1.664166         0.054409
 H        -0.461113         0.152499         0.869556
 H         0.978815         0.694333         1.322531
 H         3.299215         0.619633        -0.265700
 H         2.656913         0.713605        -2.879513
 H         3.655655        -1.336122        -4.040252
 H         3.664231        -1.930423        -2.448468
 H        -0.141015        -2.348897        -3.053025
 H         1.019430        -2.658811        -1.747635
 H         0.244696         0.134666        -2.632953
