19
Iteration:   776
 C         0.399891         0.484477         0.348496
 C         1.201681        -0.204893        -0.637498
 O         2.049803        -1.284256        -0.199186
 C         2.586180        -0.073933        -0.863738
 C         2.470184        -0.112421        -2.414017
 C         2.955303        -1.320363        -3.292569
 O         1.978012        -2.409201        -3.168079
 C         0.681485        -1.906172        -2.561494
 C         0.916101        -0.392522        -2.173979
 H         0.208525         1.466082         0.153212
 H        -0.502379        -0.075368         0.295757
 H         0.792772         0.375085         1.332082
 H         3.333704         0.293981        -0.230043
 H         2.636479         0.895035        -2.861149
 H         2.896903        -0.981091        -4.285627
 H         3.930855        -1.718298        -3.006939
 H        -0.023188        -1.914461        -3.397762
 H         0.377078        -2.480617        -1.677573
 H         0.325415         0.408027        -2.533667
