19
Iteration:   789
 C         0.257793         0.391738         0.338348
 C         1.217509        -0.212676        -0.668983
 O         2.110263        -1.272863        -0.287437
 C         2.724283        -0.071109        -0.865269
 C         2.518327        -0.129755        -2.404984
 C         2.881184        -1.297597        -3.263283
 O         1.884137        -2.391976        -3.057497
 C         0.706212        -1.817957        -2.595607
 C         0.980061        -0.419140        -2.151602
 H         0.222383         1.391315         0.081997
 H        -0.833386         0.055786         0.350689
 H         0.621885         0.260695         1.276237
 H         3.374381         0.702680        -0.331691
 H         2.797508         0.789817        -2.817288
 H         3.018401        -1.054992        -4.337094
 H         3.849879        -1.742997        -2.979601
 H        -0.143811        -1.912654        -3.240902
 H         0.490155        -2.437122        -1.756319
 H         0.220945         0.127030        -2.614619
