19
Iteration:  4205
 C         0.122308         0.250724         0.241711
 C         1.218250        -0.228924        -0.619717
 O         1.908731        -1.425876        -0.168348
 C         2.780887        -0.359845        -0.605909
 C         2.790931        -0.342357        -2.220642
 C         2.957450        -1.672614        -2.917552
 O         1.678038        -2.050086        -3.517362
 C         0.574665        -1.265270        -2.960618
 C         1.286570        -0.102771        -2.153064
 H         0.364053        -0.181286         1.172701
 H         0.117687         1.348488         0.338583
 H        -0.866883        -0.310511         0.050959
 H         3.622843        -0.111666         0.164936
 H         3.493454         0.376295        -2.608869
 H         3.742739        -1.445537        -3.682660
 H         3.343269        -2.462931        -2.199452
 H        -0.073509        -0.981971        -3.775636
 H        -0.126853        -1.999047        -2.324504
 H         1.161099         0.910549        -2.570946
