19
Iteration:  2654
 C         0.296405         0.545224         0.374228
 C         1.236204        -0.212443        -0.532854
 O         2.068834        -1.356216        -0.218677
 C         2.658817        -0.129344        -0.890745
 C         2.490296        -0.184707        -2.358581
 C         3.005778        -1.266797        -3.247235
 O         1.976750        -2.351738        -3.148490
 C         0.650557        -1.908111        -2.748682
 C         0.893842        -0.414312        -2.123222
 H        -0.314303         1.226308        -0.416872
 H        -0.581655        -0.073053         0.684605
 H         0.849468         1.221225         1.209152
 H         3.455591         0.401576        -0.292799
 H         2.801275         0.829479        -2.887888
 H         2.843066        -0.874986        -4.226417
 H         4.064146        -1.657843        -3.076104
 H        -0.032201        -1.801998        -3.564916
 H         0.231075        -2.563541        -2.074114
 H         0.126556         0.323532        -2.374732
