19
Iteration:  3588
 C         0.236838         0.293020         0.271009
 C         1.277364        -0.118811        -0.687408
 O         1.979471        -1.397574        -0.255544
 C         2.728749        -0.244466        -0.730994
 C         2.676503        -0.276462        -2.241086
 C         2.963077        -1.525446        -2.984204
 O         1.729999        -2.138403        -3.385334
 C         0.611830        -1.554125        -2.766764
 C         1.075910        -0.219677        -2.160684
 H        -0.062844        -0.589860         1.019457
 H         0.774290         0.958283         0.999811
 H        -0.595033         0.705762        -0.225090
 H         3.579016         0.069416        -0.039478
 H         3.281674         0.547869        -2.606829
 H         3.485891        -1.280129        -3.920177
 H         3.593936        -2.265794        -2.395657
 H        -0.090837        -1.495652        -3.622489
 H         0.228731        -2.245106        -2.062177
 H         0.551378         0.795452        -2.527214
