19
Iteration:  1665
 C         0.274781         0.336967         0.443034
 C         1.233677        -0.239625        -0.645865
 O         2.358026        -1.068451        -0.119629
 C         2.634482         0.092254        -0.843583
 C         2.501452        -0.304061        -2.433353
 C         2.880696        -1.723063        -2.779068
 O         1.757312        -1.997614        -3.638741
 C         0.657290        -1.859629        -2.775533
 C         0.933400        -0.499707        -2.154438
 H        -0.500398         0.971026        -0.079282
 H        -0.303066        -0.477019         0.986943
 H         0.820775         1.126849         1.099849
 H         3.240685         0.887281        -0.177861
 H         2.818750         0.413977        -3.119223
 H         3.820809        -1.708837        -3.477558
 H         3.116079        -2.519236        -1.996917
 H        -0.285536        -1.987607        -3.454903
 H         0.729123        -2.747846        -2.068039
 H         0.262266         0.347090        -2.554422
