19
Iteration:   855charge 0 multiplicity 1
 C         0.273702         0.077216         0.452270
 C         1.245988        -0.205781        -0.684207
 O         2.350141        -1.181579        -0.337904
 C         2.655274         0.078265        -0.963836
 C         2.535789        -0.138919        -2.424488
 C         2.933639        -1.524347        -3.053160
 O         1.772421        -2.399567        -2.801784
 C         0.557905        -1.630035        -2.883766
 C         0.930072        -0.286374        -2.280009
 H        -0.364698         0.854172         0.246718
 H        -0.376516        -0.810515         0.652902
 H         0.813613         0.296256         1.276179
 H         3.107389         1.037423        -0.379082
 H         2.940819         0.691439        -2.942911
 H         3.155072        -1.365544        -4.081516
 H         3.852649        -2.074778        -2.764164
 H         0.254537        -1.571185        -3.982759
 H        -0.378057        -1.921594        -2.385343
 H         0.402295         0.590970        -2.575713
