19
Iteration:   787
 C         0.277832         0.399460         0.335492
 C         1.220813        -0.208214        -0.664885
 O         2.097189        -1.276236        -0.274407
 C         2.698370        -0.067948        -0.864840
 C         2.518682        -0.123798        -2.396230
 C         2.891446        -1.286178        -3.273016
 O         1.893408        -2.404268        -3.073107
 C         0.709740        -1.816095        -2.588935
 C         0.972025        -0.432870        -2.162734
 H         0.218828         1.401104         0.110611
 H        -0.732107         0.064017         0.317675
 H         0.664652         0.303840         1.320269
 H         3.317806         0.627143        -0.339560
 H         2.818817         0.850151        -2.851053
 H         3.008934        -1.108785        -4.289632
 H         3.850326        -1.727059        -2.998266
 H        -0.183187        -1.920649        -3.235675
 H         0.464781        -2.492362        -1.749855
 H         0.207681         0.182332        -2.567257
