19
Iteration:  2658
 C         0.252836         0.532759         0.382404
 C         1.255775        -0.209548        -0.518862
 O         2.077047        -1.368705        -0.215415
 C         2.684267        -0.105363        -0.908208
 C         2.475589        -0.186806        -2.367771
 C         2.976524        -1.245528        -3.252957
 O         1.967331        -2.378364        -3.146371
 C         0.662922        -1.871693        -2.745711
 C         0.924562        -0.418381        -2.113244
 H        -0.308823         1.300187        -0.352027
 H        -0.606911        -0.029869         0.646341
 H         0.696325         1.182556         1.086220
 H         3.501820         0.387866        -0.243301
 H         2.912167         0.717260        -2.821633
 H         2.874923        -0.938791        -4.345443
 H         3.981378        -1.618066        -3.034459
 H        -0.032282        -1.797835        -3.618532
 H         0.213554        -2.650040        -1.996710
 H         0.223129         0.312670        -2.458614
