19
Iteration:  3418
 C         0.214854         0.354691         0.396307
 C         1.204116        -0.123706        -0.640721
 O         2.095703        -1.275077        -0.139183
 C         2.714407        -0.134621        -0.796980
 C         2.641475        -0.286631        -2.302669
 C         3.036499        -1.610288        -2.957793
 O         1.790662        -2.111716        -3.600344
 C         0.554008        -1.656728        -2.744864
 C         1.003418        -0.371651        -2.146046
 H         0.232978         1.379179         0.541714
 H        -0.827504        -0.009970         0.142431
 H         0.657458        -0.186671         1.406626
 H         3.539362         0.273739        -0.158900
 H         2.926700         0.649230        -2.853680
 H         3.702238        -1.428351        -3.828343
 H         3.432768        -2.367688        -2.236786
 H        -0.193209        -1.453411        -3.552987
 H         0.292575        -2.376001        -1.936689
 H         0.575926         0.532361        -2.616726
