19
Iteration:  3631
 C         0.170203         0.251594         0.308069
 C         1.191280        -0.209045        -0.610552
 O         2.151840        -1.322422        -0.137187
 C         2.728828        -0.184613        -0.754582
 C         2.680260        -0.303464        -2.237355
 C         2.944450        -1.689044        -2.930612
 O         1.723915        -2.147998        -3.499763
 C         0.590706        -1.456544        -2.874093
 C         1.109359        -0.159479        -2.190717
 H         0.181025        -0.496185         1.176279
 H         0.358733         1.036921         1.026124
 H        -0.733785         0.314293        -0.149197
 H         3.529139         0.472422        -0.221975
 H         3.127209         0.507063        -2.799248
 H         3.557859        -1.518120        -3.800274
 H         3.366469        -2.513105        -2.384562
 H        -0.107200        -1.130744        -3.597286
 H         0.024917        -2.183341        -2.298168
 H         0.651526         0.917172        -2.516481
