19
Iteration:  4808charge 0 multiplicity 1
 C         0.147279         0.400001         0.230074
 C         1.262280        -0.238560        -0.659264
 O         1.758560        -1.562598        -0.184130
 C         2.746822        -0.594804        -0.526671
 C         2.735338        -0.362650        -2.198558
 C         2.964253        -1.454239        -3.121427
 O         1.743828        -2.159292        -3.216154
 C         0.720646        -1.173955        -3.044451
 C         1.247879        -0.114512        -2.170560
 H         0.246748         0.031145         1.359931
 H         0.329865         1.508890         0.176816
 H        -0.894118         0.229916        -0.250217
 H         3.655870        -0.341082         0.254694
 H         3.225892         0.566750        -2.434957
 H         3.449149        -1.008360        -3.935002
 H         3.727867        -2.254347        -2.893353
 H         0.334381        -0.961290        -4.129322
 H         0.016291        -1.808569        -2.562726
 H         0.911991         0.910253        -2.512027
