19
Iteration:  1250charge 0 multiplicity 1
 C         0.219656         0.335532         0.391383
 C         1.224463        -0.178028        -0.647230
 O         2.117392        -1.277160        -0.244251
 C         2.755723        -0.183268        -0.887808
 C         2.517127        -0.178445        -2.443328
 C         2.805939        -1.394006        -3.245373
 O         1.964285        -2.329931        -2.924063
 C         0.693871        -1.731197        -2.759337
 C         0.985536        -0.306866        -2.196135
 H         0.029643         1.449438         0.157914
 H        -0.747288        -0.105591         0.293205
 H         0.626709         0.256418         1.518350
 H         3.467072         0.303249        -0.378478
 H         2.723360         0.871451        -2.878528
 H         2.792270        -1.232178        -4.362510
 H         3.792596        -1.772025        -3.069624
 H         0.102515        -1.609916        -3.671918
 H         0.115531        -2.425953        -2.076557
 H         0.320213         0.478691        -2.601436
