19
Iteration:  2113charge 0 multiplicity 1
 C         0.272860         0.339053         0.368736
 C         1.228194        -0.290597        -0.581711
 O         2.247116        -1.213345        -0.159061
 C         2.648266        -0.004062        -0.812450
 C         2.494551        -0.193638        -2.393742
 C         2.904267        -1.405305        -3.252597
 O         1.889632        -2.412065        -2.999502
 C         0.629453        -1.696583        -2.872148
 C         0.959746        -0.372073        -2.249747
 H        -0.199940         1.178228         0.002236
 H        -0.556483        -0.462033         0.657327
 H         0.816615         0.576788         1.286787
 H         3.277048         0.736809        -0.161999
 H         2.793146         0.745162        -2.794721
 H         2.832904        -1.139802        -4.309738
 H         3.816240        -1.941515        -3.018953
 H         0.159710        -1.659382        -3.907508
 H        -0.159619        -2.174947        -2.233927
 H         0.343120         0.489300        -2.674392
