19
Iteration:  3616
 C         0.081007         0.228119         0.416355
 C         1.269382        -0.154471        -0.594369
 O         2.081702        -1.312951        -0.196017
 C         2.734750        -0.150700        -0.694682
 C         2.690054        -0.319340        -2.323490
 C         2.974958        -1.659152        -3.063487
 O         1.685414        -2.194499        -3.460700
 C         0.632904        -1.426980        -2.857930
 C         1.156572        -0.213742        -2.139197
 H        -0.196420        -0.511343         1.064940
 H         0.417734         1.177352         0.832071
 H        -0.873133         0.516524        -0.255437
 H         3.567346         0.228289         0.001299
 H         3.266404         0.518143        -2.802654
 H         3.626835        -1.540234        -3.954353
 H         3.440624        -2.308501        -2.334348
 H        -0.039853        -1.298500        -3.741077
 H         0.251475        -2.105783        -1.971437
 H         0.735310         0.670835        -2.483766
