19
Iteration:   784charge 0 multiplicity 1
 C         0.319426         0.408566         0.329243
 C         1.225992        -0.203773        -0.656279
 O         2.079643        -1.279369        -0.250940
 C         2.644744        -0.067814        -0.867560
 C         2.513326        -0.112793        -2.388176
 C         2.911454        -1.281908        -3.276745
 O         1.916213        -2.418065        -3.103520
 C         0.708567        -1.827535        -2.573585
 C         0.959185        -0.445546        -2.177049
 H         0.205397         1.570908         0.132419
 H        -0.653463         0.004523         0.250724
 H         0.755111         0.361737         1.444140
 H         3.297717         0.513219        -0.291544
 H         2.812214         0.913703        -2.890576
 H         2.968722        -1.130583        -4.361852
 H         3.874295        -1.721698        -3.003317
 H        -0.211209        -1.917632        -3.267696
 H         0.407883        -2.550754        -1.719841
 H         0.170425         0.347371        -2.524500
