19
Iteration:  1702
 C         0.236706         0.388941         0.400918
 C         1.240235        -0.207081        -0.551142
 O         2.259132        -1.085796        -0.033040
 C         2.743696         0.000379        -0.811901
 C         2.463005        -0.277778        -2.409882
 C         2.956286        -1.559581        -3.057404
 O         1.778408        -2.174057        -3.569707
 C         0.636542        -1.870201        -2.786222
 C         0.951475        -0.489672        -2.107444
 H        -0.384383         1.323308        -0.163254
 H        -0.487705        -0.319074         0.729456
 H         0.696629         0.675306         1.297219
 H         3.339229         0.677419        -0.295379
 H         2.741327         0.580971        -3.169918
 H         3.601437        -1.380213        -3.910357
 H         3.540698        -2.160684        -2.269856
 H        -0.221641        -1.808522        -3.371522
 H         0.473661        -2.632825        -2.030056
 H         0.318554         0.258879        -2.528011
