19
Iteration:  2297
 C         0.415595         0.550371         0.482909
 C         1.187884        -0.167868        -0.640958
 O         1.952557        -1.261762        -0.202312
 C         2.637013        -0.168710        -0.937611
 C         2.428620        -0.143653        -2.451022
 C         2.938373        -1.260427        -3.262200
 O         2.050659        -2.422706        -3.041982
 C         0.738799        -1.927536        -2.821792
 C         0.893221        -0.443919        -2.083125
 H        -0.105224         1.441505         0.127113
 H        -0.425990        -0.066586         0.912312
 H         1.077728         0.613745         1.357446
 H         3.548130         0.236861        -0.489757
 H         2.546670         0.874965        -2.781437
 H         2.877686        -1.007487        -4.399030
 H         3.942339        -1.627357        -2.982399
 H         0.281604        -1.621507        -3.855638
 H         0.112287        -2.642063        -2.275408
 H         0.169671         0.351555        -2.358868
