19
Iteration:  4043
 C         0.251326         0.652850         0.254113
 C         1.211002        -0.257862        -0.541878
 O         1.832210        -1.530389        -0.166802
 C         2.701264        -0.525545        -0.540735
 C         2.679804        -0.414450        -2.051780
 C         3.006153        -1.563141        -3.078686
 O         1.750044        -1.835995        -3.795902
 C         0.739692        -1.563769        -2.821586
 C         1.134367        -0.276015        -2.079613
 H         0.071649         0.478608         1.274775
 H         0.786860         1.604416         0.206267
 H        -0.712519         0.759642        -0.248508
 H         3.529501        -0.136759         0.078046
 H         3.213226         0.489317        -2.357503
 H         3.747887        -1.175188        -3.746206
 H         3.367584        -2.466966        -2.632130
 H        -0.224306        -1.526321        -3.399431
 H         0.546347        -2.446045        -2.165111
 H         0.612140         0.525760        -2.524251
