19
Iteration:  1757
 C         0.287691         0.410863         0.393445
 C         1.234094        -0.090858        -0.615056
 O         2.057928        -1.344491        -0.345738
 C         2.622161        -0.146715        -0.923879
 C         2.510905        -0.122520        -2.380964
 C         3.017223        -1.377791        -3.133814
 O         1.859556        -2.274510        -3.306309
 C         0.724479        -1.873519        -2.449338
 C         0.900419        -0.356357        -2.168044
 H         0.061854         1.581131         0.166033
 H        -0.581757        -0.132506         0.158638
 H         0.643840         0.276750         1.387026
 H         3.540486         0.165153        -0.416844
 H         2.915242         0.852022        -2.902245
 H         3.471857        -1.303340        -4.126119
 H         3.852144        -1.876822        -2.518586
 H        -0.206958        -1.947568        -2.918444
 H         0.759302        -2.385741        -1.511105
 H         0.244989         0.227657        -2.788781
