19
Iteration:    35charge 0 multiplicity 1
 C         0.341968         0.321422         0.529758
 C         1.192542        -0.021972        -0.653463
 O         2.105447        -1.034169        -0.270978
 C         2.641334         0.064263        -0.894371
 C         2.474444        -0.301761        -2.399449
 C         2.933120        -1.639088        -2.918476
 O         1.805380        -2.171918        -3.554575
 C         0.788842        -1.960113        -2.586031
 C         0.964341        -0.451211        -2.218608
 H         0.695403         1.152547         1.236415
 H        -0.561987         0.591414         0.096685
 H         0.161071        -0.639931         1.066038
 H         3.212014         0.927211        -0.320589
 H         2.756728         0.516473        -3.058117
 H         3.665415        -1.581791        -3.699188
 H         3.153084        -2.329538        -2.061625
 H        -0.196775        -2.215600        -3.084624
 H         1.036314        -2.557710        -1.713638
 H         0.413257         0.181867        -2.810296
