19
Iteration:  4895charge 0 multiplicity 1
 C         0.276292         0.383659         0.475325
 C         1.163427        -0.236164        -0.662687
 O         1.732333        -1.496219        -0.361583
 C         2.614200        -0.432065        -0.632855
 C         2.746817        -0.309772        -2.148725
 C         3.085687        -1.638456        -2.940914
 O         1.783351        -2.173686        -3.383814
 C         0.665358        -1.249933        -3.102380
 C         1.246959        -0.101502        -2.161130
 H         0.745187         0.273121         1.507183
 H         0.128218         1.428691         0.278788
 H        -0.778501        -0.036887         0.520167
 H         3.379439        -0.172719         0.207300
 H         3.237979         0.572679        -2.463576
 H         3.866830        -1.505170        -3.808070
 H         3.397165        -2.527406        -2.290177
 H         0.308391        -0.610561        -4.010877
 H        -0.160540        -1.716458        -2.565268
 H         0.975595         0.885210        -2.606791
