19
Iteration:   694charge 0 multiplicity 1
 C         0.234647         0.537066         0.345844
 C         1.246722        -0.152385        -0.637649
 O         2.111322        -1.366275        -0.165869
 C         2.692307        -0.116340        -0.820415
 C         2.487313        -0.204700        -2.426349
 C         2.919306        -1.302773        -3.306619
 O         1.931480        -2.323189        -3.193592
 C         0.688705        -1.893826        -2.603839
 C         0.936563        -0.440149        -2.167978
 H        -0.398766         1.280985        -0.300885
 H        -0.449730        -0.032026         0.931655
 H         0.900387         1.035924         1.050525
 H         3.464343         0.427874        -0.125847
 H         2.740850         0.847936        -2.756721
 H         3.105227        -0.974235        -4.269186
 H         3.893107        -1.649743        -2.975152
 H        -0.154631        -2.051519        -3.395855
 H         0.377781        -2.553977        -1.740226
 H         0.322435         0.437169        -2.489309
