19
Iteration:  4402
 C         0.169921         0.361609         0.354975
 C         1.251032        -0.177854        -0.639813
 O         1.817003        -1.454763        -0.244354
 C         2.685059        -0.418678        -0.614510
 C         2.755953        -0.377462        -2.148155
 C         3.004400        -1.684250        -2.852025
 O         1.790810        -1.984005        -3.625490
 C         0.606853        -1.308500        -2.929437
 C         1.231219        -0.173454        -2.194106
 H         0.553115        -0.005982         1.351661
 H         0.153167         1.433529         0.324520
 H        -0.849881        -0.040591        -0.023112
 H         3.558001        -0.044515         0.014966
 H         3.368779         0.428640        -2.492166
 H         3.753718        -1.865449        -3.637080
 H         3.046052        -2.458152        -2.074161
 H        -0.060025        -0.964888        -3.677767
 H         0.163769        -2.099032        -2.302718
 H         1.074419         0.853959        -2.531008
