19
Iteration:    99charge 0 multiplicity 1
 C         0.170015         0.381234         0.329536
 C         1.256654        -0.204930        -0.585127
 O         2.311077        -1.114177        -0.154526
 C         2.747860         0.013391        -0.841078
 C         2.494710        -0.206320        -2.407452
 C         3.007453        -1.436453        -3.067329
 O         1.807074        -2.336672        -3.343533
 C         0.489598        -1.843489        -2.754155
 C         0.991324        -0.545110        -2.055225
 H         0.285425         1.501492         0.327152
 H        -0.744836         0.266639        -0.190259
 H         0.110522         0.087760         1.367850
 H         3.535090         0.665574        -0.340433
 H         2.713383         0.690771        -2.974916
 H         3.470227        -1.283137        -4.017643
 H         3.738590        -1.852488        -2.443801
 H        -0.096442        -1.498257        -3.600061
 H        -0.134837        -2.640805        -2.328373
 H         0.299204         0.243508        -2.484762
