19
Iteration:    58charge 0 multiplicity 1
 C         0.241790         0.343124         0.391551
 C         1.178264        -0.246380        -0.648858
 O         2.264544        -1.102019        -0.134291
 C         2.591039         0.088787        -0.905052
 C         2.567092        -0.191301        -2.434981
 C         3.017899        -1.592106        -2.960287
 O         1.779787        -2.207507        -3.504737
 C         0.618150        -1.871220        -2.608099
 C         0.974666        -0.489569        -2.151870
 H         0.770831         1.366921         0.514929
 H        -0.685016         0.647777         0.044886
 H         0.236719        -0.198939         1.397866
 H         3.317631         0.876185        -0.326444
 H         2.664082         0.666112        -3.116882
 H         3.597034        -1.494650        -3.875846
 H         3.407316        -2.326164        -2.184924
 H        -0.305651        -1.868230        -3.299425
 H         0.576673        -2.589035        -1.796606
 H         0.395657         0.251845        -2.558639
