19
Iteration:  3488
 C         0.257904         0.515269         0.336521
 C         1.227043        -0.162550        -0.568726
 O         2.038802        -1.375523        -0.156338
 C         2.684380        -0.118777        -0.727390
 C         2.606504        -0.374963        -2.191649
 C         3.037633        -1.576680        -3.017343
 O         1.757185        -1.978368        -3.748158
 C         0.612288        -1.758535        -2.725749
 C         1.065249        -0.411602        -2.051469
 H        -0.739566         0.802300        -0.287748
 H        -0.094486        -0.162458         1.099596
 H         0.676667         1.452029         0.749771
 H         3.537873         0.391384        -0.200363
 H         2.919943         0.523958        -2.730420
 H         3.813412        -1.285215        -3.746495
 H         3.389841        -2.495395        -2.401788
 H        -0.337518        -1.798243        -3.202505
 H         0.696984        -2.619322        -2.093104
 H         0.454311         0.383015        -2.604444
