19
Iteration:  4491
 C         0.223714         0.410155         0.237889
 C         1.215396        -0.256577        -0.668357
 O         1.757917        -1.503969        -0.168871
 C         2.708998        -0.544213        -0.555801
 C         2.790365        -0.391719        -2.106249
 C         3.023135        -1.533346        -3.083307
 O         1.709441        -2.114812        -3.329119
 C         0.688623        -1.227471        -3.057270
 C         1.231980        -0.128007        -2.200681
 H         0.759532         0.369925         1.318248
 H        -0.072266         1.444583         0.138969
 H        -0.721750        -0.199241         0.439961
 H         3.398001        -0.185445         0.096932
 H         3.437553         0.435679        -2.368238
 H         3.395869        -1.003536        -4.002041
 H         3.767065        -2.223513        -2.657878
 H         0.279489        -0.873883        -3.928644
 H        -0.140322        -1.736739        -2.548802
 H         0.769052         0.787192        -2.543927
