19
Iteration:  4312
 C         0.309077         0.646510         0.479449
 C         1.141021        -0.204636        -0.543198
 O         1.737575        -1.515705        -0.118492
 C         2.592551        -0.417609        -0.562290
 C         2.726913        -0.413224        -2.185365
 C         3.004951        -1.682793        -2.996284
 O         1.864250        -1.843059        -3.827636
 C         0.715166        -1.583670        -3.048385
 C         1.184968        -0.311131        -2.071582
 H         0.907390         0.911340         1.302533
 H        -0.017304         1.611223        -0.099172
 H        -0.745637         0.285929         0.827152
 H         3.374563        -0.095998         0.238104
 H         3.344390         0.384658        -2.556904
 H         3.781746        -1.342131        -3.707701
 H         3.341055        -2.559709        -2.413215
 H        -0.125798        -1.163969        -3.593404
 H         0.611773        -2.412741        -2.359312
 H         0.738974         0.588792        -2.611018
