19
Iteration:  1160charge 0 multiplicity 1
 C         0.302553         0.182186         0.411434
 C         1.236179        -0.137889        -0.707279
 O         2.223730        -1.181655        -0.363570
 C         2.651213         0.096969        -0.911198
 C         2.573782        -0.189245        -2.401538
 C         2.993278        -1.545351        -2.843617
 O         1.767392        -2.377561        -3.238650
 C         0.568108        -1.667144        -2.731277
 C         0.918087        -0.328610        -2.189918
 H        -0.267211         1.046930         0.126229
 H        -0.483654        -0.710841         0.570095
 H         0.821270         0.223368         1.375355
 H         3.565057         0.680330        -0.439394
 H         2.987428         0.707943        -2.921549
 H         3.575065        -1.494605        -3.769837
 H         3.606494        -2.007240        -2.080976
 H        -0.172248        -1.654110        -3.505732
 H         0.191883        -2.357074        -1.857445
 H         0.348735         0.456599        -2.617223
