19
Iteration:  1705
 C         0.227015         0.409343         0.383133
 C         1.247200        -0.200373        -0.553012
 O         2.255273        -1.101732        -0.033605
 C         2.730464        -0.025491        -0.802190
 C         2.465194        -0.270151        -2.397679
 C         2.953860        -1.548528        -3.087543
 O         1.789014        -2.166017        -3.538861
 C         0.640555        -1.887893        -2.776306
 C         0.947772        -0.479193        -2.130568
 H        -0.294705         1.240500        -0.064780
 H        -0.521147        -0.396107         0.690816
 H         0.761418         0.654671         1.395168
 H         3.367478         0.852293        -0.348561
 H         2.675987         0.537026        -3.113653
 H         3.631121        -1.492052        -3.947086
 H         3.568598        -2.140506        -2.411004
 H        -0.265358        -1.861938        -3.452157
 H         0.442377        -2.567126        -1.932882
 H         0.334238         0.361717        -2.518579
