19
Iteration:  4396
 C         0.155587         0.401829         0.384269
 C         1.209837        -0.161800        -0.624025
 O         1.838556        -1.467707        -0.247063
 C         2.735241        -0.421126        -0.594781
 C         2.751373        -0.438465        -2.178580
 C         3.029567        -1.721494        -2.876521
 O         1.775530        -1.946611        -3.643534
 C         0.664863        -1.333947        -2.944423
 C         1.224494        -0.161240        -2.166980
 H         0.173268         0.155988         1.469579
 H        -0.040521         1.509907         0.277487
 H        -0.695307        -0.087893         0.033342
 H         3.385057         0.048716         0.091427
 H         3.262916         0.519805        -2.503224
 H         3.776269        -1.818270        -3.667780
 H         3.108548        -2.586259        -2.184569
 H        -0.229308        -0.991857        -3.600420
 H         0.075071        -2.044605        -2.284517
 H         1.052810         0.830905        -2.611271
