19
Iteration:  3539charge 0 multiplicity 1
 C         0.411459         0.489369         0.460629
 C         1.181272        -0.170174        -0.620198
 O         1.889251        -1.356138        -0.289978
 C         2.699283        -0.270910        -0.701494
 C         2.542202        -0.272382        -2.257602
 C         3.050243        -1.517594        -3.014912
 O         1.855624        -2.134466        -3.494161
 C         0.664366        -1.670859        -2.801306
 C         0.974689        -0.317365        -2.164336
 H        -0.516853         0.121934         0.425884
 H         0.734759         0.183702         1.411067
 H         0.320373         1.580707         0.220464
 H         3.389879         0.127186        -0.036391
 H         2.721430         0.696122        -2.764629
 H         3.670027        -1.280165        -3.886268
 H         3.596992        -2.160318        -2.395351
 H        -0.058873        -1.726603        -3.591899
 H         0.334383        -2.503934        -2.129558
 H         0.549252         0.441703        -2.753214
