19
Iteration:  4693
 C         0.180842         0.292716         0.312510
 C         1.223786        -0.184928        -0.645517
 O         1.760297        -1.516072        -0.322985
 C         2.695934        -0.399737        -0.552439
 C         2.833009        -0.325595        -2.131336
 C         3.006672        -1.595774        -3.001432
 O         1.712079        -2.126203        -3.310984
 C         0.660621        -1.223619        -3.013104
 C         1.278767        -0.126787        -2.241692
 H         0.666010         0.280554         1.256624
 H        -0.221398         1.364746         0.153659
 H        -0.679580        -0.363990         0.404049
 H         3.465679        -0.369587         0.125445
 H         3.288413         0.571143        -2.601280
 H         3.685052        -1.529587        -3.870082
 H         3.463246        -2.388139        -2.423790
 H         0.121492        -0.782099        -3.942095
 H        -0.123892        -1.783973        -2.370203
 H         1.158304         0.908431        -2.545009
