19
Iteration:   173charge 0 multiplicity 1
 C         0.326071         0.348302         0.421542
 C         1.249143        -0.177824        -0.628420
 O         2.040432        -1.313068        -0.436640
 C         2.683889        -0.144960        -0.938659
 C         2.459645        -0.119115        -2.461945
 C         3.047936        -1.412196        -3.091538
 O         1.926077        -2.450984        -3.036153
 C         0.671650        -1.695372        -2.612756
 C         0.866685        -0.199045        -2.180972
 H        -0.492083         0.852116        -0.023227
 H        -0.296786        -0.519630         0.960673
 H         0.854707         0.972487         1.110709
 H         3.387779         0.232766        -0.386492
 H         2.729075         0.804238        -2.967733
 H         3.484309        -1.264366        -4.134197
 H         3.772986        -1.766143        -2.287674
 H         0.035545        -1.674935        -3.510213
 H         0.148885        -2.360786        -1.862816
 H         0.202466         0.616353        -2.651703
