19
Iteration:   967
 C         0.201763         0.269696         0.381072
 C         1.269897        -0.129015        -0.603767
 O         2.219711        -1.156312        -0.221769
 C         2.741012        -0.052146        -0.924265
 C         2.508912        -0.170294        -2.459346
 C         2.983368        -1.420801        -3.087637
 O         1.773270        -2.400830        -3.326160
 C         0.642881        -1.773465        -2.572104
 C         0.950223        -0.372803        -2.108295
 H        -0.279536         1.227533        -0.015696
 H        -0.549195        -0.433104         0.247803
 H         0.481102         0.513760         1.428112
 H         3.519194         0.534836        -0.377458
 H         2.727662         0.728137        -3.070530
 H         3.325209        -1.318462        -4.159283
 H         3.793888        -1.946453        -2.534568
 H        -0.294126        -1.998823        -3.297433
 H         0.356590        -2.314291        -1.625592
 H         0.408882         0.577154        -2.566298
