19
Iteration:  2835
 C         0.235671         0.136040         0.348399
 C         1.276455        -0.216249        -0.690438
 O         2.241441        -1.099799        -0.191890
 C         2.721837         0.053747        -0.880013
 C         2.514723        -0.200730        -2.362913
 C         2.944804        -1.516343        -3.081733
 O         1.799613        -2.363243        -3.126403
 C         0.529776        -1.638075        -2.795341
 C         0.990422        -0.342718        -2.145830
 H        -0.689123         0.629277        -0.133306
 H         0.007897        -0.835660         0.896196
 H         0.550753         0.791322         1.166422
 H         3.526384         0.617949        -0.402839
 H         2.836145         0.607770        -2.980899
 H         3.253799        -1.347681        -4.102402
 H         3.702581        -2.100617        -2.634825
 H         0.010800        -1.448029        -3.720817
 H        -0.059065        -2.453340        -2.251760
 H         0.591748         0.515272        -2.669080
