19
Iteration:   417charge 0 multiplicity 1
 C         0.342433         0.564246         0.394907
 C         1.157427        -0.270495        -0.577033
 O         2.150855        -1.116924        -0.077018
 C         2.604602         0.079321        -0.871430
 C         2.428733        -0.262084        -2.332376
 C         2.989222        -1.611175        -3.059732
 O         1.800366        -2.044734        -3.693366
 C         0.796214        -2.041100        -2.565335
 C         0.951606        -0.614084        -2.113379
 H         0.521917         1.638678        -0.086836
 H        -0.672039         0.431173         0.373461
 H         0.515878         0.535956         1.531225
 H         3.307711         0.653241        -0.135382
 H         2.423623         0.520043        -3.118917
 H         3.665455        -1.235804        -3.953695
 H         3.672559        -2.265403        -2.543044
 H        -0.277872        -2.165763        -2.923979
 H         1.070753        -2.772816        -1.811395
 H         0.256059        -0.010657        -2.749867
