19
Iteration:  3239charge 0 multiplicity 1
 C         0.328206         0.403634         0.483977
 C         1.190588        -0.206105        -0.624467
 O         2.017253        -1.411810        -0.329132
 C         2.592159        -0.193212        -0.826720
 C         2.549212        -0.097632        -2.390758
 C         2.964095        -1.394551        -3.090991
 O         1.915806        -2.397863        -3.009198
 C         0.692367        -1.671256        -2.895921
 C         0.968029        -0.184565        -2.255360
 H         0.572903        -0.352273         1.370257
 H         0.868512         1.320414         0.760890
 H        -0.769150         0.439450         0.199201
 H         3.325658         0.193238        -0.225009
 H         2.942209         0.739145        -2.884334
 H         3.007952        -1.277182        -4.231906
 H         3.906517        -1.826806        -2.803110
 H         0.202931        -1.571873        -3.796663
 H         0.080565        -2.373764        -2.328694
 H         0.462423         0.652367        -2.666806
