19
Iteration:  2007
 C         0.292202         0.488565         0.453827
 C         1.191866        -0.214468        -0.642128
 O         2.097014        -1.250768        -0.232702
 C         2.665093        -0.080668        -0.830634
 C         2.441064        -0.200792        -2.383178
 C         2.951291        -1.354191        -3.256930
 O         1.965531        -2.405171        -3.111990
 C         0.709024        -1.790902        -2.788193
 C         0.918538        -0.472073        -2.143841
 H         0.379395         1.671501         0.130688
 H        -0.746742         0.035859         0.635122
 H         0.814747         0.374253         1.389589
 H         3.571128         0.493431        -0.333457
 H         2.472443         0.875796        -2.794658
 H         3.033303        -1.065223        -4.296900
 H         3.950460        -1.709368        -2.925914
 H         0.176076        -1.609798        -3.710094
 H         0.062625        -2.533568        -2.157094
 H         0.208910         0.316080        -2.551662
