19
Iteration:   854
 C         0.272646         0.076901         0.446014
 C         1.243608        -0.201790        -0.685223
 O         2.349569        -1.181913        -0.335991
 C         2.652134         0.078828        -0.958999
 C         2.538369        -0.147711        -2.425191
 C         2.934219        -1.521338        -3.060990
 O         1.777671        -2.399297        -2.798725
 C         0.554801        -1.629574        -2.885551
 C         0.927714        -0.285604        -2.273481
 H        -0.337025         0.858887         0.249281
 H        -0.378837        -0.813138         0.612154
 H         0.801339         0.293530         1.268984
 H         3.160781         1.008455        -0.389699
 H         2.944408         0.700319        -2.945301
 H         3.135865        -1.334278        -4.088718
 H         3.856086        -2.054138        -2.744634
 H         0.211819        -1.560780        -3.984175
 H        -0.371339        -1.928941        -2.338870
 H         0.415574         0.561476        -2.579462
