19
Iteration:  2914
 C         0.328852         0.419938         0.498575
 C         1.124721        -0.163058        -0.645146
 O         2.088559        -1.244981        -0.243545
 C         2.611721        -0.036938        -0.858480
 C         2.456751        -0.209982        -2.381688
 C         3.036042        -1.453677        -3.094171
 O         1.878372        -2.327546        -3.392332
 C         0.740895        -1.838693        -2.655091
 C         0.930307        -0.382168        -2.208455
 H         0.234481         1.459432         0.328010
 H        -0.774362         0.294633         0.549129
 H         1.005024         0.225774         1.437390
 H         3.398087         0.515803        -0.197446
 H         2.797381         0.688292        -2.948206
 H         3.404012        -1.186110        -4.064634
 H         3.773653        -1.954445        -2.534890
 H        -0.146190        -2.079962        -3.211922
 H         0.759640        -2.410254        -1.608439
 H         0.270869         0.449005        -2.680033
