19
Iteration:   797
 C         0.173182         0.359551         0.323175
 C         1.214786        -0.225664        -0.656921
 O         2.183206        -1.249264        -0.321580
 C         2.763957        -0.068495        -0.868136
 C         2.484055        -0.166397        -2.421914
 C         2.881425        -1.382432        -3.249837
 O         1.902671        -2.335692        -3.030488
 C         0.674314        -1.834684        -2.576891
 C         0.988612        -0.348335        -2.148154
 H         0.153989         1.422465         0.135366
 H        -0.785792        -0.053352         0.269830
 H         0.560179         0.180531         1.359221
 H         3.480088         0.483961        -0.331859
 H         2.696164         0.855026        -2.913365
 H         2.869246        -0.977997        -4.212748
 H         3.820618        -1.827919        -2.939288
 H        -0.050691        -1.857644        -3.460506
 H         0.325847        -2.357634        -1.629859
 H         0.348266         0.354390        -2.683486
