19
Iteration:  1699charge 0 multiplicity 1
 C         0.240167         0.380493         0.401150
 C         1.235026        -0.213150        -0.555675
 O         2.261600        -1.074097        -0.034895
 C         2.736428         0.025746        -0.835511
 C         2.468241        -0.273646        -2.422576
 C         2.960877        -1.573930        -3.017002
 O         1.767735        -2.186399        -3.605910
 C         0.642077        -1.846482        -2.780896
 C         0.962806        -0.506216        -2.079631
 H        -0.343231         1.230047        -0.137732
 H        -0.522097        -0.307847         0.757162
 H         0.694769         0.782360         1.287951
 H         3.409990         0.578826        -0.202690
 H         2.755560         0.558523        -3.084906
 H         3.593800        -1.265750        -3.890857
 H         3.449035        -2.177375        -2.189561
 H        -0.273449        -1.750189        -3.392426
 H         0.504220        -2.735807        -2.098274
 H         0.268825         0.218933        -2.548712
