19
Iteration:  3768charge 0 multiplicity 1
 C         0.346182         0.558115         0.204814
 C         1.253644        -0.230769        -0.548955
 O         1.809026        -1.474971        -0.141118
 C         2.706293        -0.380970        -0.524999
 C         2.639082        -0.247729        -2.182408
 C         2.970087        -1.511777        -3.138965
 O         1.765238        -1.948223        -3.722537
 C         0.675789        -1.680835        -2.670195
 C         1.126077        -0.324775        -2.142653
 H         0.902845         1.401658         0.439183
 H        -0.595684         0.868128        -0.257003
 H         0.129897        -0.115090         1.178596
 H         3.626842        -0.110977         0.182059
 H         3.109977         0.659001        -2.684414
 H         3.667249        -1.115961        -3.977071
 H         3.496795        -2.386606        -2.551210
 H        -0.369207        -1.698806        -3.196429
 H         0.624949        -2.509583        -2.039701
 H         0.548438         0.477012        -2.473948
