19
Iteration:   395charge 0 multiplicity 1
 C         0.260046         0.529933         0.249176
 C         1.213379        -0.196616        -0.571456
 O         2.282769        -1.099342        -0.048264
 C         2.655570        -0.043176        -0.894529
 C         2.478543        -0.269135        -2.356025
 C         2.873595        -1.529004        -3.029845
 O         1.762328        -2.065453        -3.661366
 C         0.803813        -2.037868        -2.622335
 C         0.928083        -0.566816        -2.018104
 H         0.269181         1.725338         0.285660
 H        -0.626433         0.123656         0.033374
 H         0.192588         0.040026         1.303038
 H         3.342343         0.786076        -0.426627
 H         2.584664         0.693929        -2.909015
 H         3.846496        -1.490424        -3.681986
 H         3.198382        -2.205985        -2.250910
 H        -0.276052        -2.169679        -3.000765
 H         0.978537        -2.752838        -1.829671
 H         0.165899         0.119617        -2.490980
