19
Iteration:  2481charge 0 multiplicity 1
 C         0.331869         0.081336         0.515556
 C         1.199720        -0.267840        -0.679286
 O         2.284338        -1.144762        -0.347346
 C         2.601003         0.110102        -0.883099
 C         2.518359        -0.130633        -2.480867
 C         2.918616        -1.575174        -2.929231
 O         1.838524        -2.407195        -2.955625
 C         0.564996        -1.612568        -2.955460
 C         0.946612        -0.274838        -2.287929
 H        -0.446829         0.819684         0.039995
 H        -0.038386        -0.719314         1.021983
 H         0.970947         0.574200         1.338110
 H         3.237477         0.870367        -0.303571
 H         2.731352         0.753829        -3.149402
 H         3.451942        -1.560859        -3.905779
 H         3.682040        -1.906681        -2.141375
 H         0.148361        -1.416170        -3.978166
 H        -0.154793        -2.269507        -2.250054
 H         0.430297         0.590133        -2.646634
