19
Iteration:  4367charge 0 multiplicity 1
 C         0.213666         0.446645         0.226910
 C         1.179468        -0.250504        -0.606244
 O         1.796389        -1.446560        -0.094731
 C         2.748970        -0.394420        -0.558981
 C         2.769580        -0.444169        -2.103150
 C         2.962132        -1.693548        -2.973759
 O         1.766173        -1.821698        -3.820169
 C         0.669088        -1.441635        -2.885101
 C         1.254657        -0.243469        -2.096080
 H         0.464456         0.689493         1.223118
 H        -0.130807         1.416255        -0.261252
 H        -0.751406        -0.154765         0.425967
 H         3.578524        -0.033612         0.224982
 H         3.258424         0.500024        -2.307267
 H         3.871881        -1.817577        -3.619000
 H         2.950756        -2.565523        -2.250199
 H        -0.266958        -1.124737        -3.316889
 H         0.433041        -2.234978        -2.196486
 H         0.961814         0.746167        -2.572387
