19
Iteration:  3942
 C         0.200846         0.318896         0.304746
 C         1.283662        -0.200026        -0.576362
 O         1.959545        -1.496409        -0.231140
 C         2.735238        -0.281482        -0.679628
 C         2.736035        -0.330411        -2.209690
 C         2.949161        -1.675467        -2.831228
 O         1.729965        -1.988984        -3.614341
 C         0.593845        -1.412419        -2.862991
 C         1.129815        -0.141557        -2.169095
 H        -0.417168        -0.488327         0.542749
 H         0.579199         0.701368         1.266642
 H        -0.380084         1.193784        -0.188848
 H         3.480191         0.110196         0.080740
 H         3.265471         0.479108        -2.714031
 H         3.746390        -1.657633        -3.630502
 H         3.202272        -2.448770        -2.133404
 H        -0.086616        -1.115582        -3.693122
 H         0.300426        -2.226399        -2.199501
 H         0.677870         0.761125        -2.750278
