19
Iteration:  2517
 C         0.236547         0.065510         0.367660
 C         1.251505        -0.162991        -0.644270
 O         2.263831        -1.125931        -0.285283
 C         2.754413         0.028247        -0.869054
 C         2.487069        -0.130908        -2.481627
 C         2.889880        -1.514380        -3.114998
 O         1.849766        -2.409616        -2.875174
 C         0.595552        -1.636475        -2.856857
 C         0.949577        -0.303492        -2.162646
 H        -0.333473         0.973317         0.199286
 H        -0.614111        -0.721568         0.236291
 H         0.626642         0.219157         1.331917
 H         3.415617         0.751762        -0.131674
 H         2.662130         0.722708        -3.110594
 H         2.929123        -1.442797        -4.203811
 H         3.830347        -1.935899        -2.773500
 H         0.328408        -1.492834        -3.878132
 H        -0.149476        -2.435758        -2.489352
 H         0.470829         0.656876        -2.684985
