19
Iteration:  2584
 C         0.309422         0.396824         0.437042
 C         1.200491        -0.162642        -0.636442
 O         2.044538        -1.284807        -0.297818
 C         2.652651        -0.115380        -0.942670
 C         2.452863        -0.093323        -2.448965
 C         2.936072        -1.308290        -3.186523
 O         1.990994        -2.433549        -3.058846
 C         0.710056        -1.826564        -2.654620
 C         0.983878        -0.373154        -2.147804
 H         0.047217         1.372369         0.230303
 H        -0.756904        -0.119872         0.411197
 H         0.784665         0.294194         1.400491
 H         3.400640         0.378238        -0.278344
 H         2.641956         0.808068        -2.946622
 H         2.941458        -0.978323        -4.232535
 H         3.875832        -1.743896        -2.948683
 H         0.056643        -1.746764        -3.568172
 H         0.164291        -2.543619        -1.930928
 H         0.285508         0.427265        -2.693243
