19
Iteration:  4608charge 0 multiplicity 1
 C         0.265454         0.402535         0.416309
 C         1.156012        -0.253282        -0.627087
 O         1.740479        -1.508187        -0.276068
 C         2.660417        -0.521359        -0.678738
 C         2.807083        -0.263117        -2.206617
 C         3.034493        -1.540054        -2.976166
 O         1.793656        -2.157026        -3.266117
 C         0.687591        -1.293926        -3.076511
 C         1.178373        -0.099738        -2.231237
 H         0.385568        -0.195258         1.325135
 H         0.621159         1.427153         0.581200
 H        -0.824344         0.382549         0.077280
 H         3.327558        -0.226647         0.040233
 H         3.374985         0.581056        -2.455085
 H         3.508700        -1.386597        -3.928466
 H         3.519784        -2.324977        -2.338650
 H         0.341166        -0.927217        -4.008401
 H        -0.102106        -1.851826        -2.688513
 H         0.765449         0.855567        -2.598876
