19
Iteration:  3434charge 0 multiplicity 1
 C         0.191845         0.365834         0.371223
 C         1.223081        -0.168462        -0.613816
 O         2.131524        -1.239689        -0.135542
 C         2.712261        -0.088645        -0.684701
 C         2.616888        -0.374981        -2.218826
 C         2.956498        -1.667879        -3.061009
 O         1.705566        -2.012353        -3.619060
 C         0.647744        -1.729747        -2.784501
 C         1.108859        -0.317936        -2.138160
 H        -0.102595         1.443204         0.009978
 H        -0.689907        -0.250093         0.353211
 H         0.449272         0.283923         1.353444
 H         3.389906         0.550274        -0.117410
 H         3.048648         0.461039        -2.754724
 H         3.662020        -1.496084        -3.882396
 H         3.347665        -2.531793        -2.429711
 H        -0.233248        -1.699324        -3.392323
 H         0.612946        -2.549000        -2.036083
 H         0.583405         0.483094        -2.708435
