19
Iteration:  4065
 C         0.204112         0.576526         0.260453
 C         1.226547        -0.226090        -0.570530
 O         1.761594        -1.547526        -0.156155
 C         2.674477        -0.440108        -0.555241
 C         2.790363        -0.422622        -2.166758
 C         3.009713        -1.625201        -3.091206
 O         1.762412        -1.746066        -3.759933
 C         0.702160        -1.536468        -2.759276
 C         1.212111        -0.302188        -2.054544
 H         0.383591         0.595809         1.336012
 H         0.347006         1.600441        -0.046026
 H        -0.796295         0.130445         0.141006
 H         3.406907        -0.088338         0.261396
 H         3.311532         0.468655        -2.568174
 H         3.734634        -1.486522        -3.891395
 H         3.210381        -2.583161        -2.623333
 H        -0.291646        -1.529782        -3.314366
 H         0.502241        -2.383685        -2.041117
 H         0.912180         0.563413        -2.591210
