19
Iteration:  4942charge 0 multiplicity 1
 C         0.199230         0.417476         0.205996
 C         1.235006        -0.341637        -0.582243
 O         1.794045        -1.514256        -0.137447
 C         2.718412        -0.460048        -0.555510
 C         2.812196        -0.368594        -2.190721
 C         3.046331        -1.559668        -2.969147
 O         1.684818        -2.130021        -3.405356
 C         0.656839        -1.148347        -3.143333
 C         1.202048        -0.202094        -2.077775
 H         0.686471         0.794843         1.013503
 H        -0.533720         1.185777        -0.395500
 H        -0.435432        -0.354871         0.569398
 H         3.499811        -0.232567        -0.009557
 H         3.377887         0.639425        -2.297464
 H         3.538224        -1.277374        -3.920715
 H         3.607346        -2.417315        -2.441542
 H         0.462484        -0.361667        -4.058274
 H        -0.254225        -1.611156        -2.814794
 H         0.885537         0.756127        -2.431513
