19
Iteration:  4336
 C         0.301859         0.613978         0.283314
 C         1.214709        -0.261267        -0.596762
 O         1.782390        -1.513911        -0.050014
 C         2.670660        -0.424795        -0.567326
 C         2.699625        -0.460663        -2.072964
 C         2.981326        -1.719003        -3.007959
 O         1.845636        -1.705874        -3.840647
 C         0.666169        -1.571548        -2.943111
 C         1.124669        -0.259136        -2.089665
 H         0.807607         1.069086         1.162974
 H        -0.201435         1.355150        -0.373445
 H        -0.674273         0.027544         0.635735
 H         3.588526        -0.158907         0.159992
 H         3.206998         0.455708        -2.348940
 H         3.943928        -1.622801        -3.543063
 H         3.027015        -2.506888        -2.288254
 H        -0.138044        -1.363742        -3.586111
 H         0.730278        -2.482714        -2.243474
 H         0.690897         0.609751        -2.632605
