19
Iteration:  2675
 C         0.207218         0.470961         0.300158
 C         1.206260        -0.225338        -0.591871
 O         2.126032        -1.276463        -0.196883
 C         2.712877        -0.172118        -0.802633
 C         2.475663        -0.129059        -2.392808
 C         2.870396        -1.373679        -3.322136
 O         1.955392        -2.380116        -3.121635
 C         0.739153        -1.770461        -2.679866
 C         0.996308        -0.394932        -2.105533
 H        -0.321961         1.258109        -0.279188
 H        -0.614645        -0.273375         0.509274
 H         0.743768         0.697157         1.318181
 H         3.583184         0.303494        -0.297267
 H         2.385356         0.908453        -2.849293
 H         2.924532        -1.019705        -4.349595
 H         3.864949        -1.781383        -2.981907
 H         0.061391        -1.603279        -3.538081
 H         0.240687        -2.378680        -1.996926
 H         0.293118         0.392013        -2.521988
