19
Iteration:  2951charge 0 multiplicity 1
 C         0.293104         0.498350         0.343163
 C         1.255349        -0.194319        -0.608591
 O         2.056917        -1.213594        -0.085855
 C         2.702159        -0.001591        -0.810618
 C         2.427564        -0.217650        -2.439640
 C         3.022821        -1.458031        -3.082291
 O         1.799722        -2.117773        -3.584047
 C         0.772847        -1.969174        -2.621648
 C         0.920895        -0.569099        -2.031575
 H         0.653286         1.580385         0.327181
 H        -0.699469         0.291405         0.068284
 H         0.356999         0.212882         1.335986
 H         3.445651         0.471861        -0.370096
 H         2.559874         0.661899        -3.099354
 H         3.686193        -1.254183        -3.976122
 H         3.566953        -2.147543        -2.349130
 H        -0.260370        -2.098792        -3.031187
 H         0.917791        -2.755187        -1.854622
 H         0.274884         0.153923        -2.553122
