19
Iteration:  2486charge 0 multiplicity 1
 C         0.326642         0.085315         0.505223
 C         1.213441        -0.290392        -0.668034
 O         2.265588        -1.132899        -0.304282
 C         2.606606         0.103006        -0.926317
 C         2.507343        -0.130375        -2.498368
 C         2.962017        -1.553426        -2.914905
 O         1.808981        -2.400354        -2.947703
 C         0.582329        -1.601914        -2.931100
 C         0.947579        -0.261759        -2.305781
 H        -0.397251         0.736126         0.130875
 H        -0.182567        -0.816127         1.109388
 H         0.958970         0.429685         1.289081
 H         3.254577         0.818343        -0.353768
 H         2.804273         0.667745        -3.153092
 H         3.285801        -1.522337        -3.974064
 H         3.755006        -2.003270        -2.337502
 H         0.173536        -1.599389        -3.948262
 H        -0.058583        -2.197534        -2.360624
 H         0.413260         0.686371        -2.721946
