19
Iteration:   262
 C         0.274135         0.314246         0.355465
 C         1.199184        -0.244502        -0.640468
 O         2.209997        -1.185005        -0.181949
 C         2.689978         0.004284        -0.830063
 C         2.484063        -0.191263        -2.394176
 C         2.927466        -1.476788        -3.132986
 O         1.855971        -2.416847        -3.121387
 C         0.600669        -1.645771        -2.867669
 C         1.016500        -0.389706        -2.111120
 H        -0.784470         0.581981         0.057719
 H         0.182976        -0.504937         1.094812
 H         0.777628         1.189073         0.872338
 H         3.458772         0.476668        -0.303890
 H         2.678944         0.708702        -2.986383
 H         3.105841        -1.139261        -4.213315
 H         3.821748        -1.988814        -2.734892
 H         0.078917        -1.485964        -3.886588
 H        -0.120534        -2.265159        -2.328767
 H         0.395153         0.477376        -2.485107
