19
Iteration:  4503
 C         0.172125         0.455404         0.317022
 C         1.193860        -0.258597        -0.589015
 O         1.756210        -1.553876        -0.232781
 C         2.699184        -0.517944        -0.551342
 C         2.815684        -0.407183        -2.120447
 C         2.982145        -1.498558        -3.189560
 O         1.770473        -2.138984        -3.250068
 C         0.674260        -1.224661        -3.074245
 C         1.272744        -0.138181        -2.173839
 H         0.618234         0.752687         1.383471
 H        -0.031968         1.353298        -0.355611
 H        -0.759828        -0.147159         0.398374
 H         3.291887        -0.164484         0.208394
 H         3.423190         0.517450        -2.302855
 H         3.347804        -1.130404        -4.195708
 H         3.610426        -2.372060        -3.039611
 H         0.317360        -0.866264        -3.963275
 H        -0.110411        -1.837523        -2.560921
 H         1.084313         0.914679        -2.491827
