19
Iteration:   955
 C         0.184926         0.233919         0.369532
 C         1.254481        -0.158911        -0.653129
 O         2.285606        -1.158208        -0.174971
 C         2.749737         0.040479        -0.889887
 C         2.464784        -0.167068        -2.414890
 C         2.941688        -1.521783        -3.121279
 O         1.758185        -2.347545        -3.224542
 C         0.615462        -1.763680        -2.667388
 C         1.008293        -0.347526        -2.201168
 H        -0.461884         1.066036         0.042874
 H        -0.402600        -0.615257         0.644903
 H         0.668208         0.400873         1.320052
 H         3.710897         0.603588        -0.496807
 H         2.693070         0.771070        -2.932005
 H         3.414206        -1.369040        -4.128184
 H         3.641464        -2.061991        -2.405841
 H        -0.238757        -1.568495        -3.440089
 H         0.293271        -2.449837        -1.812805
 H         0.302886         0.403518        -2.689615
