19
Iteration:   486
 C         0.219009         0.450599         0.357562
 C         1.200446        -0.175936        -0.622780
 O         2.176422        -1.271526        -0.307363
 C         2.666468        -0.060789        -0.742993
 C         2.531937        -0.101751        -2.450842
 C         2.981059        -1.447812        -3.171905
 O         1.837389        -2.315384        -3.301613
 C         0.649420        -1.869656        -2.497828
 C         0.986736        -0.397442        -2.198751
 H        -0.677724         0.965843        -0.148704
 H        -0.088617        -0.269947         1.025164
 H         0.688662         1.095466         1.062460
 H         3.426863         0.405067        -0.180555
 H         2.769273         0.756978        -3.033806
 H         3.385061        -1.190743        -4.156912
 H         3.781055        -2.007094        -2.724467
 H        -0.125435        -1.995484        -3.176839
 H         0.474358        -2.541508        -1.623676
 H         0.276029         0.275568        -2.602310
