19
Iteration:  4520charge 0 multiplicity 1
 C         0.204254         0.497018         0.235794
 C         1.237211        -0.271764        -0.545403
 O         1.696019        -1.605372        -0.302986
 C         2.662228        -0.519280        -0.595170
 C         2.818589        -0.328495        -2.137151
 C         3.033085        -1.465534        -3.176831
 O         1.726462        -2.281681        -3.225440
 C         0.720611        -1.213784        -3.016984
 C         1.270842        -0.078762        -2.072337
 H         0.648548         0.796056         1.137461
 H        -0.283174         1.371617        -0.161767
 H        -0.613931        -0.212063         0.490704
 H         3.532126        -0.511781         0.167084
 H         3.379782         0.543979        -2.439115
 H         3.036310        -0.859009        -4.074142
 H         3.981989        -2.039899        -2.990311
 H         0.587588        -0.712519        -4.120118
 H        -0.192264        -1.599081        -2.578518
 H         0.737711         0.833530        -2.501380
