19
Iteration:  3997
 C         0.394041         0.577553         0.511177
 C         1.132362        -0.187996        -0.572737
 O         1.777784        -1.454680        -0.238257
 C         2.590902        -0.423648        -0.627968
 C         2.673697        -0.420009        -2.141040
 C         3.015335        -1.591185        -3.035393
 O         1.870660        -1.957239        -3.721059
 C         0.682924        -1.548727        -2.906099
 C         1.110125        -0.255748        -2.160206
 H         0.056782        -0.051969         1.253332
 H         1.037273         1.313783         1.026228
 H        -0.626064         0.974121         0.160090
 H         3.325256        -0.167299         0.075588
 H         3.060488         0.461498        -2.594132
 H         3.814541        -1.265998        -3.749734
 H         3.459015        -2.350549        -2.381844
 H        -0.154542        -1.592888        -3.617746
 H         0.525650        -2.373447        -2.225110
 H         0.869564         0.712169        -2.655342
