19
Iteration:  4196
 C         0.104404         0.253584         0.299885
 C         1.224282        -0.194284        -0.586457
 O         1.967830        -1.445160        -0.213184
 C         2.731564        -0.288852        -0.632497
 C         2.794727        -0.397249        -2.114888
 C         2.914142        -1.714847        -2.951145
 O         1.676517        -2.063622        -3.523077
 C         0.655937        -1.219937        -3.003429
 C         1.255336        -0.131928        -2.164602
 H         0.383966         0.021110         1.357215
 H        -0.164683         1.289877         0.259896
 H        -0.895432        -0.192515         0.013065
 H         3.652470        -0.039326         0.113124
 H         3.435078         0.449067        -2.519766
 H         3.604431        -1.690006        -3.839533
 H         3.251904        -2.598264        -2.264647
 H         0.110593        -0.847317        -3.898305
 H         0.148724        -1.911450        -2.341687
 H         0.940643         0.853928        -2.496803
