19
Iteration:  4802
 C         0.164621         0.403249         0.239170
 C         1.249097        -0.280172        -0.615506
 O         1.745799        -1.561728        -0.141868
 C         2.699740        -0.557980        -0.548532
 C         2.750496        -0.343732        -2.155048
 C         2.997833        -1.521435        -3.172720
 O         1.750873        -2.134043        -3.207540
 C         0.716333        -1.192163        -3.070817
 C         1.256510        -0.088812        -2.197315
 H         0.277311         0.142926         1.213656
 H         0.214587         1.543349         0.203513
 H        -0.798131         0.119837        -0.075070
 H         3.519347        -0.365666        -0.017116
 H         3.423897         0.570493        -2.430936
 H         3.301677        -0.951422        -4.201530
 H         3.768866        -2.234821        -2.946008
 H         0.444718        -0.884451        -4.046353
 H        -0.105294        -1.881612        -2.667703
 H         0.926931         0.904447        -2.409778
