19
Iteration:  3072charge 0 multiplicity 1
 C         0.347109         0.317971         0.434166
 C         1.202987        -0.248094        -0.736506
 O         2.198503        -1.271093        -0.325045
 C         2.584122        -0.024832        -0.831354
 C         2.552854        -0.140823        -2.342680
 C         3.045858        -1.569580        -2.871098
 O         1.821000        -2.194853        -3.343559
 C         0.558144        -1.791702        -2.716039
 C         0.940720        -0.314742        -2.226497
 H        -0.676921         0.745415         0.002190
 H         0.303687        -0.433006         1.204777
 H         0.794208         1.179528         0.722059
 H         3.327159         0.662113        -0.248990
 H         2.662768         0.728226        -3.009102
 H         3.721480        -1.508637        -3.770401
 H         3.540455        -1.915228        -2.059962
 H        -0.333600        -1.860195        -3.482600
 H         0.276276        -2.424677        -1.767247
 H         0.242764         0.414512        -2.651066
