19
Iteration:  4890
 C         0.312982         0.357857         0.465955
 C         1.148051        -0.228952        -0.627971
 O         1.693218        -1.465896        -0.393918
 C         2.663432        -0.437512        -0.596290
 C         2.717201        -0.338003        -2.193737
 C         3.066804        -1.652682        -2.928434
 O         1.806564        -2.149688        -3.362181
 C         0.665895        -1.249799        -3.085749
 C         1.239844        -0.086244        -2.186793
 H         0.668974         0.101981         1.480597
 H         0.187804         1.487117         0.302885
 H        -0.669292        -0.095232         0.369289
 H         3.365118        -0.163960         0.189877
 H         3.287426         0.618103        -2.422471
 H         3.747088        -1.446660        -3.736389
 H         3.407398        -2.413782        -2.264799
 H         0.340388        -0.793284        -3.976286
 H        -0.171149        -1.846779        -2.635084
 H         1.004108         0.889643        -2.611502
