19
Iteration:     2
 C         0.259693         0.391560         0.381154
 C         1.211978        -0.167578        -0.638558
 O         2.206872        -1.109716        -0.204438
 C         2.641181         0.065989        -0.916408
 C         2.463190        -0.219253        -2.422702
 C         2.970493        -1.541450        -2.994284
 O         1.805185        -2.229666        -3.462636
 C         0.729942        -1.926503        -2.575412
 C         0.941011        -0.468546        -2.137873
 H         0.812130         0.618644         1.325664
 H        -0.224417         1.256830         0.026601
 H        -0.477059        -0.413327         0.652236
 H         3.430739         0.672570        -0.396118
 H         2.678807         0.655662        -3.039269
 H         3.653950        -1.460393        -3.836611
 H         3.494647        -2.154441        -2.222233
 H        -0.218173        -2.097967        -3.123899
 H         0.719033        -2.597656        -1.722967
 H         0.277265         0.219003        -2.580333
