19
Iteration:  1429
 C         0.228956         0.261892         0.385216
 C         1.203568        -0.175824        -0.620399
 O         2.158069        -1.112607        -0.192557
 C         2.686990         0.069946        -0.850979
 C         2.618046        -0.260776        -2.409302
 C         2.999533        -1.626944        -3.020329
 O         1.731346        -2.254474        -3.511019
 C         0.681799        -1.786392        -2.588234
 C         0.996586        -0.320861        -2.110307
 H        -0.525560         1.143985         0.090496
 H        -0.368117        -0.617970         0.310374
 H         0.566543         0.477995         1.347306
 H         3.324303         0.844964        -0.255176
 H         2.832998         0.568910        -3.066592
 H         3.671410        -1.415950        -3.866242
 H         3.585590        -2.384542        -2.515931
 H        -0.230330        -1.858671        -3.238862
 H         0.452347        -2.435777        -1.648094
 H         0.425191         0.496052        -2.564262
