19
Iteration:   884charge 0 multiplicity 1
 C         0.375656         0.049084         0.444745
 C         1.256237        -0.243671        -0.652077
 O         2.331582        -1.145890        -0.334042
 C         2.619613         0.162952        -0.982517
 C         2.424905        -0.173457        -2.459939
 C         2.949371        -1.528698        -2.909395
 O         1.750180        -2.417727        -2.838886
 C         0.573653        -1.540021        -3.059697
 C         0.903070        -0.362781        -2.199714
 H        -0.527385         0.658624         0.130573
 H         0.044581        -0.833246         1.050126
 H         1.056457         0.656446         1.170422
 H         3.403605         0.641570        -0.472998
 H         2.729202         0.668481        -3.142816
 H         3.512366        -1.624972        -3.906781
 H         3.657391        -1.983118        -2.183945
 H         0.598975        -1.355987        -4.132290
 H        -0.442271        -1.861259        -2.748194
 H         0.377684         0.560700        -2.393826
