19
Iteration:  2312
 C         0.465295         0.543640         0.483152
 C         1.194095        -0.200971        -0.584825
 O         1.936469        -1.345388        -0.226557
 C         2.618302        -0.144590        -0.909016
 C         2.379427        -0.130052        -2.432194
 C         2.933974        -1.279477        -3.338922
 O         2.089662        -2.352735        -2.944686
 C         0.719513        -1.869672        -2.771943
 C         0.853473        -0.446272        -2.236783
 H         0.370032         1.568373         0.210381
 H        -0.523941         0.005434         0.717931
 H         1.096917         0.548869         1.358609
 H         3.443656         0.361229        -0.094348
 H         2.639636         0.823267        -2.918699
 H         2.941517        -1.100302        -4.409995
 H         3.965067        -1.547438        -3.076726
 H         0.207683        -1.843665        -3.734107
 H         0.278808        -2.625529        -2.147461
 H         0.140569         0.170846        -2.896472
