19
Iteration:  3874
 C         0.162238         0.287517         0.380500
 C         1.281949        -0.180252        -0.594461
 O         2.009070        -1.390675        -0.211051
 C         2.766022        -0.188947        -0.644019
 C         2.745662        -0.334980        -2.215198
 C         2.864617        -1.702595        -2.828878
 O         1.730130        -2.004849        -3.706810
 C         0.601285        -1.443672        -2.884082
 C         1.165993        -0.275769        -2.185400
 H        -0.823632         0.478257        -0.149182
 H        -0.046291        -0.461736         1.168583
 H         0.376057         1.252191         0.864534
 H         3.636079         0.088442         0.001168
 H         3.174692         0.411097        -2.924554
 H         3.862192        -1.686359        -3.330199
 H         2.912242        -2.464507        -2.033090
 H        -0.025777        -0.950271        -3.641729
 H         0.139558        -2.162632        -2.155304
 H         0.860691         0.762888        -2.698933
