19
Iteration:  4334
 C         0.293071         0.632599         0.311230
 C         1.206168        -0.273747        -0.571750
 O         1.784167        -1.499084        -0.073553
 C         2.668340        -0.430043        -0.574905
 C         2.693385        -0.470516        -2.055143
 C         2.998442        -1.716072        -3.016066
 O         1.839409        -1.719593        -3.859171
 C         0.685561        -1.557546        -2.928626
 C         1.127238        -0.276432        -2.088085
 H         0.806260         1.067458         1.119811
 H        -0.207895         1.409673        -0.388681
 H        -0.661952         0.039288         0.635832
 H         3.562151        -0.157581         0.139130
 H         3.127896         0.468268        -2.388999
 H         3.980689        -1.623157        -3.524587
 H         3.017209        -2.519035        -2.261129
 H        -0.133772        -1.399691        -3.633231
 H         0.691461        -2.447223        -2.300781
 H         0.712937         0.637696        -2.634445
