19
Iteration:  2012charge 0 multiplicity 1
 C         0.306237         0.507204         0.427180
 C         1.161204        -0.231371        -0.672992
 O         2.082778        -1.275596        -0.230843
 C         2.691146        -0.080152        -0.838361
 C         2.459932        -0.197945        -2.373154
 C         2.936249        -1.314832        -3.221461
 O         1.977407        -2.398388        -3.103034
 C         0.697579        -1.812645        -2.773143
 C         0.910523        -0.443792        -2.167841
 H         0.227253         1.530712         0.242141
 H        -0.625462         0.104994         0.720724
 H         0.995652         0.303884         1.337615
 H         3.427396         0.489033        -0.394526
 H         2.703438         0.823237        -2.702167
 H         2.959929        -1.093756        -4.333643
 H         3.921150        -1.737748        -2.978434
 H         0.012255        -1.622768        -3.669603
 H         0.255714        -2.448093        -2.081406
 H         0.156494         0.178240        -2.584794
