19
Iteration:  1377
 C         0.244354         0.320270         0.353434
 C         1.268489        -0.227358        -0.581183
 O         2.303342        -1.101305        -0.127979
 C         2.642296         0.161084        -0.863887
 C         2.471304        -0.224308        -2.401910
 C         2.932366        -1.725042        -2.863973
 O         1.788575        -2.089504        -3.640099
 C         0.627405        -1.815795        -2.721111
 C         0.985301        -0.532226        -2.074361
 H        -0.036401         1.304958        -0.174482
 H        -0.734795        -0.348953         0.526102
 H         0.663739         0.463814         1.350418
 H         3.455304         0.811242        -0.448728
 H         2.623656         0.567507        -3.073047
 H         3.853444        -1.753624        -3.488266
 H         2.908502        -2.484220        -2.031583
 H        -0.219314        -1.899087        -3.373412
 H         0.543098        -2.441562        -1.901838
 H         0.369851         0.236719        -2.499232
