19
Iteration:   380
 C         0.146767         0.418979         0.309458
 C         1.286733        -0.157625        -0.560962
 O         2.294124        -1.113187        -0.078563
 C         2.767129         0.073375        -0.805757
 C         2.415271        -0.220066        -2.373524
 C         2.922243        -1.551160        -3.007996
 O         1.734504        -2.180119        -3.675106
 C         0.719391        -1.950808        -2.603726
 C         0.995173        -0.552297        -2.088489
 H         0.253075         1.447885         0.224186
 H        -0.902699         0.271736        -0.303787
 H         0.233502         0.217458         1.355592
 H         3.514683         0.627103        -0.413761
 H         2.626481         0.683233        -2.971155
 H         3.570070        -1.392833        -3.806966
 H         3.245373        -2.287274        -2.168021
 H        -0.234841        -2.128677        -3.118644
 H         0.847639        -2.791004        -1.867819
 H         0.310931         0.199599        -2.534513
