19
Iteration:  4986charge 0 multiplicity 1
 C         0.199179         0.269457         0.316661
 C         1.219975        -0.212750        -0.711140
 O         1.722331        -1.502775        -0.304244
 C         2.691650        -0.435979        -0.574809
 C         2.884003        -0.349778        -2.101327
 C         2.961654        -1.597406        -2.997003
 O         1.688273        -2.159606        -3.227127
 C         0.660777        -1.163235        -3.067183
 C         1.327618        -0.093482        -2.216470
 H         0.733063         0.410665         1.185091
 H        -0.433089         1.213912        -0.119964
 H        -0.502431        -0.528087         0.385724
 H         3.290848        -0.234102         0.215905
 H         3.535125         0.557003        -2.501376
 H         3.347801        -1.107728        -3.990202
 H         3.639855        -2.410926        -2.493046
 H         0.583691        -0.707956        -4.157206
 H        -0.198504        -1.676287        -2.669012
 H         1.030276         0.941920        -2.364598
