19
Iteration:  3623
 C         0.095892         0.230255         0.352491
 C         1.227258        -0.173998        -0.602952
 O         2.135404        -1.324302        -0.158731
 C         2.729297        -0.153439        -0.714384
 C         2.698214        -0.338480        -2.299680
 C         2.926159        -1.689185        -3.020331
 O         1.704805        -2.171403        -3.478315
 C         0.672946        -1.466189        -2.876562
 C         1.103521        -0.121831        -2.107596
 H        -0.072919        -0.644818         1.117396
 H         0.489824         1.216180         0.791434
 H        -0.911845         0.496332        -0.026670
 H         3.517403         0.261872        -0.224903
 H         3.255570         0.429718        -2.820570
 H         3.585987        -1.469322        -3.894322
 H         3.489240        -2.458753        -2.335141
 H        -0.070293        -1.230564        -3.708573
 H         0.129084        -2.025147        -2.138967
 H         0.652863         0.782671        -2.571136
