19
Iteration:  3290charge 0 multiplicity 1
 C         0.193725         0.376567         0.314820
 C         1.242775        -0.265826        -0.647493
 O         2.124086        -1.387021        -0.121687
 C         2.694212        -0.193732        -0.713500
 C         2.570414        -0.144491        -2.293363
 C         2.880675        -1.422114        -3.190844
 O         1.818418        -2.323316        -3.234660
 C         0.676836        -1.591254        -2.793099
 C         1.090678        -0.284023        -2.219299
 H         0.655789         0.621157         1.337714
 H        -0.097922         1.303167        -0.137527
 H        -0.580425        -0.299358         0.181541
 H         3.458082         0.563855        -0.245921
 H         2.940118         0.818889        -2.777852
 H         3.119258        -1.236183        -4.222785
 H         3.718472        -2.066184        -2.870423
 H        -0.212796        -1.446855        -3.556679
 H         0.187679        -2.313790        -2.040837
 H         0.491848         0.580242        -2.672132
