19
Iteration:   660
 C         0.180429         0.269916         0.323087
 C         1.280680        -0.120371        -0.671297
 O         2.119708        -1.238505        -0.230044
 C         2.734371        -0.026899        -0.902153
 C         2.545698        -0.193316        -2.442325
 C         2.920041        -1.381208        -3.234665
 O         1.872547        -2.385206        -3.092175
 C         0.624749        -1.758069        -2.578871
 C         1.003258        -0.345774        -2.135837
 H        -0.256950         1.301102         0.205428
 H        -0.555135        -0.489125         0.304157
 H         0.619867         0.346141         1.269489
 H         3.547823         0.440585        -0.287303
 H         2.808095         0.726663        -2.924607
 H         3.029259        -1.121051        -4.237070
 H         3.800254        -1.870868        -2.844970
 H         0.020644        -1.873716        -3.507549
 H         0.211313        -2.323224        -1.728168
 H         0.381246         0.380967        -2.612956
