19
Iteration:  1674charge 0 multiplicity 1
 C         0.271239         0.378780         0.381841
 C         1.237771        -0.229257        -0.558449
 O         2.323340        -1.098539        -0.120556
 C         2.661008         0.118027        -0.868016
 C         2.474522        -0.305527        -2.372623
 C         2.905773        -1.708538        -2.883723
 O         1.787923        -2.042129        -3.648394
 C         0.648686        -1.864494        -2.798668
 C         0.962274        -0.507630        -2.079105
 H        -0.443298         0.907844        -0.062289
 H        -0.256558        -0.467141         0.968449
 H         0.784057         0.986481         1.258876
 H         3.125364         1.064664        -0.296575
 H         2.673269         0.416619        -3.081107
 H         3.812754        -1.788854        -3.552360
 H         2.899069        -2.247267        -1.955262
 H        -0.339268        -1.895352        -3.428090
 H         0.615969        -2.727072        -2.033203
 H         0.370681         0.307831        -2.611821
