19
Iteration:  1691
 C         0.259270         0.356237         0.417115
 C         1.246106        -0.220000        -0.560458
 O         2.258976        -1.070437        -0.062172
 C         2.677601         0.089893        -0.880372
 C         2.484787        -0.264529        -2.377242
 C         2.948884        -1.591891        -2.946251
 O         1.759710        -2.196609        -3.691093
 C         0.642722        -1.833324        -2.753107
 C         0.988323        -0.537733        -2.038771
 H        -0.392220         1.239815        -0.230443
 H        -0.455761        -0.346434         0.747839
 H         0.712601         0.932947         1.144230
 H         3.479728         0.516239        -0.419443
 H         2.696488         0.748501        -2.967628
 H         3.733006        -1.405962        -3.675726
 H         3.255984        -2.356240        -2.159651
 H        -0.159685        -1.669678        -3.380156
 H         0.475336        -2.716612        -2.180601
 H         0.336286         0.223554        -2.393322
