19
Iteration:  2403
 C         0.230401         0.235812         0.317310
 C         1.244151        -0.234020        -0.562438
 O         2.211520        -1.126823        -0.189991
 C         2.685020         0.060535        -0.827239
 C         2.530326        -0.242282        -2.351112
 C         2.876257        -1.447184        -3.265034
 O         1.839304        -2.405696        -3.105179
 C         0.634236        -1.758497        -2.799500
 C         0.993030        -0.338479        -2.159373
 H        -0.280349         1.243030         0.040290
 H        -0.370082        -0.529049         0.454923
 H         0.816192         0.536121         1.264309
 H         3.309489         0.649141        -0.321547
 H         2.817302         0.761275        -2.785380
 H         2.905211        -1.072080        -4.268236
 H         3.852406        -1.894695        -3.036245
 H        -0.005252        -1.730297        -3.589480
 H         0.137480        -2.431936        -1.937688
 H         0.635932         0.545040        -2.550421
