19
Iteration:   749
 C         0.434305         0.683303         0.493463
 C         1.158143        -0.151814        -0.567753
 O         1.996800        -1.254983        -0.197831
 C         2.563155        -0.228540        -0.913863
 C         2.434051        -0.170600        -2.382395
 C         2.975560        -1.259497        -3.292771
 O         2.006486        -2.373125        -3.254817
 C         0.774927        -1.970643        -2.676522
 C         0.879624        -0.577501        -2.182353
 H        -0.070817         1.673801        -0.004596
 H        -0.410088        -0.013149         0.855911
 H         1.047310         0.940434         1.445917
 H         3.434588         0.210904        -0.283122
 H         2.612075         0.924033        -2.665077
 H         3.101808        -0.895570        -4.347916
 H         3.912690        -1.627924        -2.846706
 H         0.025016        -1.840247        -3.524006
 H         0.433346        -2.633364        -1.819716
 H         0.173076         0.273173        -2.532260
