19
Iteration:  2813charge 0 multiplicity 1
 C         0.192201         0.146824         0.449770
 C         1.274447        -0.124408        -0.584859
 O         2.329681        -1.107789        -0.149843
 C         2.709468        -0.027957        -0.897365
 C         2.470439        -0.107703        -2.475106
 C         2.943328        -1.543652        -3.054258
 O         1.769324        -2.446722        -3.053704
 C         0.609174        -1.637137        -2.991963
 C         0.979282        -0.303731        -2.179484
 H        -0.763332         0.693653         0.016088
 H        -0.126864        -0.899934         0.816353
 H         0.538427         0.578440         1.372865
 H         3.454685         0.681233        -0.582974
 H         2.841481         0.590063        -3.174589
 H         3.280313        -1.433184        -4.073034
 H         3.662836        -2.123718        -2.557093
 H         0.288795        -1.408514        -3.962731
 H        -0.229351        -2.255664        -2.474200
 H         0.286272         0.497634        -2.541188
