19
Iteration:  3639charge 0 multiplicity 1
 C         0.240997         0.248811         0.356379
 C         1.275300        -0.231179        -0.651193
 O         2.129861        -1.308712        -0.145027
 C         2.710723        -0.173412        -0.737145
 C         2.649290        -0.286951        -2.239135
 C         2.974233        -1.659056        -2.872722
 O         1.699140        -2.108317        -3.510376
 C         0.498155        -1.429589        -2.905592
 C         1.127732        -0.282273        -2.221709
 H         0.106134        -0.553855         1.008279
 H         0.337425         1.230988         0.836839
 H        -0.730974         0.197510        -0.244234
 H         3.411551         0.490865        -0.069472
 H         3.114297         0.600621        -2.737651
 H         3.719087        -1.572611        -3.677708
 H         3.303591        -2.380530        -2.149546
 H        -0.122375        -1.173589        -3.768072
 H         0.067241        -2.223721        -2.180772
 H         0.761060         0.694559        -2.512673
