19
Iteration:  2434
 C         0.215886         0.226838         0.411426
 C         1.242496        -0.218053        -0.615155
 O         2.328265        -1.157828        -0.189801
 C         2.651019         0.032931        -0.878615
 C         2.465854        -0.151582        -2.484948
 C         2.986441        -1.496160        -3.087405
 O         1.779410        -2.380315        -3.088712
 C         0.592028        -1.673455        -2.895483
 C         0.964911        -0.381416        -2.150797
 H        -0.597502         0.838740        -0.035718
 H        -0.076463        -0.661050         0.934819
 H         0.813169         0.725445         1.270243
 H         3.274942         0.663007        -0.371496
 H         2.716559         0.801998        -3.003935
 H         3.506911        -1.534971        -4.106570
 H         3.594558        -2.001321        -2.307202
 H         0.152735        -1.491144        -3.968600
 H        -0.020896        -2.384230        -2.309895
 H         0.443062         0.456045        -2.456906
