19
Iteration:  3644
 C         0.256436         0.233984         0.358196
 C         1.298593        -0.232787        -0.655234
 O         2.109529        -1.311265        -0.158068
 C         2.724713        -0.137320        -0.702880
 C         2.661471        -0.293670        -2.276683
 C         2.968340        -1.638988        -2.862365
 O         1.691036        -2.083650        -3.512320
 C         0.494325        -1.451684        -2.936649
 C         1.123238        -0.328338        -2.184376
 H         0.055721        -0.626219         1.109710
 H         0.399119         1.293596         0.631436
 H        -0.675836         0.286081        -0.160739
 H         3.344438         0.397305        -0.083482
 H         3.103023         0.566547        -2.742833
 H         3.779965        -1.635667        -3.599087
 H         3.242326        -2.283235        -1.965940
 H        -0.179750        -1.256531        -3.789420
 H         0.024104        -2.051318        -2.208142
 H         0.721334         0.687545        -2.581226
