19
Iteration:  4163
 C         0.206641         0.260831         0.331394
 C         1.247801        -0.302602        -0.629262
 O         1.935409        -1.450680        -0.184661
 C         2.706943        -0.297641        -0.653784
 C         2.761728        -0.356421        -2.154444
 C         2.895415        -1.695430        -2.795623
 O         1.749286        -2.028435        -3.536010
 C         0.617236        -1.184999        -3.136136
 C         1.191372        -0.181196        -2.174158
 H         0.829715         0.544793         1.178926
 H        -0.195317         1.186505        -0.050241
 H        -0.556263        -0.504195         0.681945
 H         3.681588        -0.154308        -0.004476
 H         3.225061         0.517532        -2.664454
 H         3.729390        -1.898965        -3.512003
 H         3.001862        -2.433534        -1.908226
 H         0.007441        -0.716429        -3.938240
 H        -0.112065        -1.749669        -2.650180
 H         0.850433         0.834448        -2.296345
