19
Iteration:  2957charge 0 multiplicity 1
 C         0.287334         0.514415         0.287960
 C         1.300833        -0.219361        -0.570759
 O         2.074790        -1.177110        -0.072731
 C         2.702834        -0.051008        -0.853798
 C         2.435163        -0.242672        -2.414008
 C         2.981253        -1.457267        -3.063459
 O         1.814841        -2.092758        -3.637162
 C         0.781740        -1.957939        -2.586106
 C         0.904297        -0.546654        -2.005950
 H         0.379705         1.585338         0.363605
 H        -0.752161         0.303145        -0.114269
 H         0.358267         0.147732         1.412064
 H         3.628758         0.462367        -0.340412
 H         2.402545         0.700559        -2.977997
 H         3.669548        -1.342440        -3.875374
 H         3.384966        -2.158592        -2.341166
 H        -0.135931        -2.202693        -3.126126
 H         0.929415        -2.836794        -1.869458
 H         0.128318         0.065380        -2.535458
