19
Iteration:  1472charge 0 multiplicity 1
 C         0.336828         0.424411         0.313315
 C         1.267408        -0.208122        -0.587620
 O         2.058598        -1.338491        -0.247903
 C         2.634120        -0.092346        -0.915284
 C         2.440785        -0.146327        -2.384178
 C         3.003692        -1.400819        -3.126571
 O         1.891737        -2.325837        -3.146037
 C         0.688521        -1.759457        -2.753482
 C         0.927974        -0.385249        -2.113725
 H        -0.209609         1.359944        -0.205152
 H        -0.369998        -0.248591         0.683398
 H         0.829598         0.817179         1.161408
 H         3.514739         0.379167        -0.319896
 H         2.766099         0.927487        -2.851942
 H         3.336412        -1.244575        -4.194306
 H         3.936223        -1.838039        -2.681848
 H        -0.210925        -1.753197        -3.472677
 H         0.358980        -2.496194        -1.859794
 H         0.199925         0.404255        -2.372245
