19
Iteration:  4638
 C         0.167140         0.409207         0.208816
 C         1.244854        -0.318286        -0.580736
 O         1.868111        -1.517681        -0.252644
 C         2.716335        -0.401794        -0.576382
 C         2.825130        -0.321773        -2.068810
 C         2.987445        -1.569857        -2.995686
 O         1.729887        -2.149697        -3.386528
 C         0.622808        -1.249526        -3.029024
 C         1.175909        -0.177062        -2.141716
 H         0.098332        -0.061554         1.151033
 H         0.550205         1.537913         0.399011
 H        -0.773104         0.402075        -0.391107
 H         3.285543         0.071667         0.211959
 H         3.446844         0.514011        -2.540545
 H         3.443308        -1.158599        -3.971574
 H         3.468178        -2.496514        -2.684666
 H         0.307493        -0.682642        -3.933865
 H        -0.233189        -1.917393        -2.653503
 H         0.904035         0.875950        -2.382995
