19
Iteration:   532
 C         0.216824         0.150050         0.394531
 C         1.287879        -0.103673        -0.669297
 O         2.222433        -1.162038        -0.226508
 C         2.741590         0.046960        -0.912343
 C         2.537512        -0.178640        -2.490866
 C         2.928818        -1.482064        -3.115727
 O         1.778311        -2.392701        -3.028528
 C         0.599949        -1.672386        -2.775440
 C         0.971965        -0.364639        -2.173806
 H        -0.615053         0.610999        -0.135149
 H        -0.123656        -0.820607         0.961946
 H         0.511778         0.698116         1.271058
 H         3.573413         0.615247        -0.474991
 H         2.677583         0.847049        -2.930896
 H         3.454448        -1.584511        -4.054837
 H         3.601197        -1.947474        -2.406912
 H        -0.033906        -1.511319        -3.657399
 H         0.054582        -2.430028        -2.179517
 H         0.427158         0.525174        -2.621100
