19
Iteration:  2440charge 0 multiplicity 1
 C         0.274881         0.207233         0.441976
 C         1.264167        -0.244429        -0.613209
 O         2.293780        -1.160788        -0.225982
 C         2.661388         0.059974        -0.950270
 C         2.415479        -0.180015        -2.462913
 C         2.948998        -1.514492        -3.035932
 O         1.859598        -2.375265        -3.071782
 C         0.560819        -1.613342        -2.925585
 C         0.953889        -0.368449        -2.150397
 H        -0.545386         0.655137        -0.123040
 H        -0.308672        -0.658011         1.073600
 H         0.699883         0.779244         1.223124
 H         3.500624         0.710000        -0.371922
 H         2.748988         0.657785        -3.063172
 H         3.596330        -1.554709        -3.898956
 H         3.485988        -1.969490        -2.195071
 H         0.152539        -1.573665        -3.943099
 H        -0.077768        -2.349549        -2.388952
 H         0.293999         0.594695        -2.417563
