19
Iteration:   111
 C         0.216602         0.391571         0.338291
 C         1.231479        -0.264092        -0.586411
 O         2.252135        -1.142986        -0.146327
 C         2.660220         0.047457        -0.899078
 C         2.518872        -0.216793        -2.382392
 C         2.982028        -1.491809        -3.124306
 O         1.800218        -2.335628        -3.262647
 C         0.625727        -1.780552        -2.787238
 C         0.988652        -0.469056        -2.101900
 H         0.285948         1.524371         0.417006
 H        -0.722674         0.045806         0.091199
 H         0.355765        -0.065896         1.345299
 H         3.320848         0.846715        -0.299797
 H         2.587219         0.707650        -2.957349
 H         3.408430        -1.288463        -4.093486
 H         3.630910        -2.139620        -2.594995
 H        -0.132147        -1.641131        -3.609319
 H         0.254560        -2.478500        -2.031975
 H         0.445833         0.414915        -2.433050
