19
Iteration:  4078charge 0 multiplicity 1
 C         0.266343         0.435302         0.258234
 C         1.232263        -0.227370        -0.579540
 O         1.729682        -1.428985        -0.117512
 C         2.725474        -0.512176        -0.571336
 C         2.737074        -0.418140        -2.111869
 C         2.938751        -1.628254        -3.005674
 O         1.733121        -1.799908        -3.788912
 C         0.737839        -1.517997        -2.812904
 C         1.226807        -0.222619        -2.167697
 H         0.728748         0.595699         1.345605
 H         0.001642         1.374912        -0.189527
 H        -0.722457        -0.007257         0.273976
 H         3.516227        -0.041341         0.161786
 H         3.317927         0.527039        -2.437166
 H         3.768934        -1.457420        -3.653484
 H         3.131968        -2.437775        -2.346792
 H        -0.181878        -1.213532        -3.410165
 H         0.820075        -2.408216        -2.056744
 H         0.773794         0.699750        -2.538406
