19
Iteration:  4277charge 0 multiplicity 1
 C         0.376719         0.462589         0.379324
 C         1.175009        -0.175729        -0.668619
 O         1.683699        -1.506410        -0.201978
 C         2.637517        -0.446961        -0.622328
 C         2.673652        -0.362748        -2.159105
 C         3.000217        -1.599676        -2.901354
 O         1.849251        -1.949682        -3.654206
 C         0.702757        -1.493025        -2.899601
 C         1.180431        -0.169178        -2.177065
 H         0.843165         0.244003         1.367760
 H         0.451360         1.601120         0.217656
 H        -0.614857         0.070153         0.431477
 H         3.349904        -0.211346         0.030228
 H         3.237548         0.487898        -2.592482
 H         3.772113        -1.276543        -3.606483
 H         3.463404        -2.377108        -2.213637
 H        -0.127617        -1.438749        -3.707798
 H         0.375002        -2.287609        -2.349955
 H         0.700536         0.773840        -2.534500
