19
Iteration:  1121
 C         0.189693         0.181765         0.345084
 C         1.284184        -0.103985        -0.640060
 O         2.176159        -1.103207        -0.211954
 C         2.732550         0.072404        -0.919916
 C         2.600826        -0.222959        -2.367209
 C         2.975469        -1.621358        -2.959431
 O         1.743584        -2.239683        -3.515458
 C         0.607993        -1.787446        -2.526077
 C         0.981487        -0.359170        -2.128133
 H        -0.659944         0.713862        -0.269228
 H        -0.085504        -0.639745         0.857332
 H         0.593816         0.821421         1.261751
 H         3.402806         0.590548        -0.364656
 H         2.850651         0.517454        -3.170774
 H         3.701024        -1.496304        -3.831626
 H         3.240111        -2.376354        -2.178353
 H        -0.393115        -1.741225        -3.069187
 H         0.653280        -2.412967        -1.673056
 H         0.465544         0.479628        -2.812357
