19
Iteration:  3781
 C         0.359151         0.582375         0.305507
 C         1.209142        -0.266263        -0.653432
 O         1.840404        -1.469399        -0.117821
 C         2.683581        -0.401219        -0.619575
 C         2.721133        -0.349300        -2.165010
 C         2.984683        -1.451831        -3.117636
 O         1.720617        -1.955138        -3.664235
 C         0.735787        -1.666031        -2.767905
 C         1.042575        -0.308279        -2.140334
 H         0.742507         1.597202         0.492150
 H        -0.649222         0.598753        -0.150539
 H         0.265952         0.178833         1.407152
 H         3.360999         0.068405         0.198925
 H         3.135097         0.671058        -2.344743
 H         3.625824        -1.270769        -4.010093
 H         3.489452        -2.345583        -2.511370
 H        -0.196634        -1.672066        -3.335082
 H         0.753518        -2.324464        -1.953822
 H         0.599646         0.486900        -2.620521
