19
Iteration:  2207charge 0 multiplicity 1
 C         0.169585         0.045890         0.390608
 C         1.216648        -0.141321        -0.684342
 O         2.227129        -1.101899        -0.313860
 C         2.765685         0.093092        -0.973532
 C         2.518295        -0.196035        -2.447878
 C         2.962796        -1.556082        -2.969975
 O         1.776540        -2.372085        -3.105152
 C         0.630394        -1.652149        -2.675326
 C         1.021028        -0.291570        -2.185598
 H        -0.536413         0.983246         0.177033
 H        -0.498591        -0.736702         0.477529
 H         0.753437         0.129754         1.390567
 H         3.502834         0.535660        -0.502484
 H         2.762548         0.633965        -3.132907
 H         3.477351        -1.524100        -4.016459
 H         3.611446        -1.873145        -2.119412
 H         0.064816        -1.526154        -3.668108
 H        -0.080928        -2.254586        -2.014151
 H         0.425876         0.470378        -2.562886
