19
Iteration:  4738charge 0 multiplicity 1
 C         0.313431         0.386713         0.425265
 C         1.173871        -0.310357        -0.654508
 O         1.631552        -1.585459        -0.384856
 C         2.685175        -0.483098        -0.668762
 C         2.721621        -0.241990        -2.235697
 C         3.114243        -1.592401        -2.869541
 O         1.776274        -2.131140        -3.222141
 C         0.680520        -1.189480        -3.095949
 C         1.243282        -0.098268        -2.209938
 H         1.019292         0.711480         1.218655
 H        -0.247617         1.229240         0.016966
 H        -0.409994        -0.358007         0.849451
 H         3.278147        -0.237045         0.120903
 H         3.234189         0.621853        -2.579124
 H         3.616767        -1.631106        -3.808266
 H         3.765032        -2.213952        -2.306539
 H         0.451245        -0.639117        -4.127375
 H        -0.299644        -1.674619        -2.694943
 H         0.814791         0.863395        -2.500144
