19
Iteration:  2579charge 0 multiplicity 1
 C         0.305565         0.369262         0.394641
 C         1.236806        -0.196226        -0.629868
 O         2.066392        -1.286171        -0.269741
 C         2.647241        -0.089883        -0.957185
 C         2.473353        -0.047889        -2.424569
 C         2.896484        -1.343043        -3.187762
 O         1.989549        -2.432015        -3.034924
 C         0.700669        -1.808377        -2.666442
 C         0.930211        -0.369468        -2.175372
 H         0.062142         1.465670         0.058376
 H        -0.582684        -0.167005         0.338538
 H         0.662025         0.092212         1.421531
 H         3.438255         0.311145        -0.253393
 H         2.740603         0.942539        -2.933692
 H         2.936320        -0.998625        -4.265287
 H         3.935155        -1.709247        -2.911600
 H        -0.012300        -1.724035        -3.525348
 H         0.197731        -2.397656        -1.859875
 H         0.396711         0.366837        -2.657883
