19
Iteration:  4706
 C         0.227323         0.342111         0.408921
 C         1.216220        -0.184940        -0.677070
 O         1.782388        -1.531055        -0.450156
 C         2.692584        -0.482995        -0.574563
 C         2.775017        -0.295133        -2.134427
 C         3.050615        -1.625308        -2.868627
 O         1.721950        -2.180412        -3.324865
 C         0.614203        -1.234871        -3.048562
 C         1.272003        -0.015951        -2.221090
 H         0.770509         0.558628         1.389958
 H        -0.276384         1.290272         0.072689
 H        -0.540515        -0.498109         0.574742
 H         3.157666        -0.094867         0.253203
 H         3.429276         0.481787        -2.321681
 H         3.519105        -1.223903        -3.771971
 H         3.641839        -2.386604        -2.323234
 H         0.233619        -0.989937        -4.070230
 H        -0.178845        -1.771759        -2.482602
 H         0.937039         0.846271        -2.772463
