19
Iteration:   507charge 0 multiplicity 1
 C         0.217128         0.262928         0.331258
 C         1.256433        -0.187156        -0.658747
 O         2.204423        -1.237889        -0.282304
 C         2.684609        -0.022950        -0.901593
 C         2.525793        -0.176678        -2.398156
 C         2.931838        -1.446701        -3.084878
 O         1.807796        -2.363632        -3.162439
 C         0.657072        -1.728382        -2.609979
 C         0.986506        -0.317310        -2.161820
 H        -0.683744         0.690820        -0.361453
 H        -0.160230        -0.445827         0.982805
 H         0.610683         1.090632         0.944469
 H         3.402510         0.664854        -0.518415
 H         2.684668         0.737086        -2.898696
 H         3.259484        -1.151128        -4.152637
 H         3.753839        -2.065072        -2.724030
 H        -0.138409        -1.785267        -3.296547
 H         0.444110        -2.378254        -1.737253
 H         0.472251         0.528645        -2.541420
