19
Iteration:  2243charge 0 multiplicity 1
 C         0.206145         0.253256         0.269657
 C         1.262069        -0.264120        -0.683849
 O         2.246613        -1.191059        -0.207743
 C         2.700214         0.030826        -0.833295
 C         2.487023        -0.212835        -2.382328
 C         2.903986        -1.425474        -3.160902
 O         1.833343        -2.381406        -3.131885
 C         0.635911        -1.716215        -2.646820
 C         0.988234        -0.336769        -2.151523
 H        -0.479950         0.873169        -0.290084
 H        -0.364969        -0.596733         0.735063
 H         0.593362         0.872401         1.087669
 H         3.518686         0.743908        -0.354236
 H         2.733260         0.693028        -2.908441
 H         3.194806        -1.236345        -4.195896
 H         3.766978        -1.949767        -2.725016
 H         0.009532        -1.469922        -3.512849
 H         0.137053        -2.333943        -1.977677
 H         0.364410         0.485841        -2.577321
