19
Iteration:   440charge 0 multiplicity 1
 C         0.313643         0.581290         0.456823
 C         1.151973        -0.096682        -0.670836
 O         2.113107        -1.193555        -0.061130
 C         2.616363        -0.091475        -0.857827
 C         2.464371        -0.214533        -2.364822
 C         3.016053        -1.439583        -3.123754
 O         1.801278        -2.224557        -3.610197
 C         0.806198        -2.056857        -2.645342
 C         0.903597        -0.531149        -2.098471
 H         0.066399         1.699566         0.054746
 H        -0.497373         0.170774         0.867056
 H         1.004166         0.664377         1.351255
 H         3.298251         0.662211        -0.262540
 H         2.685974         0.713193        -2.881973
 H         3.692839        -1.346935        -4.060886
 H         3.660296        -1.943789        -2.431723
 H        -0.151550        -2.363817        -3.096317
 H         1.042784        -2.657129        -1.758227
 H         0.243591         0.150084        -2.629072
