19
Iteration:  4081charge 0 multiplicity 1
 C         0.282384         0.432893         0.255390
 C         1.226726        -0.225437        -0.582387
 O         1.738799        -1.421767        -0.106508
 C         2.732325        -0.503177        -0.573774
 C         2.723551        -0.400843        -2.090271
 C         2.953443        -1.640567        -2.983598
 O         1.726069        -1.814057        -3.796069
 C         0.733915        -1.513698        -2.845692
 C         1.208246        -0.204836        -2.187258
 H         0.740348         0.558858         1.321658
 H        -0.064132         1.410216        -0.157612
 H        -0.649887        -0.201764         0.350088
 H         3.488501        -0.184285         0.108746
 H         3.289228         0.524654        -2.338563
 H         3.775798        -1.532932        -3.725531
 H         3.119775        -2.485767        -2.285282
 H        -0.160425        -1.220958        -3.354783
 H         0.829091        -2.339757        -2.074075
 H         0.801084         0.789546        -2.556387
