19
Iteration:  4326charge 0 multiplicity 1
 C         0.261902         0.667367         0.350946
 C         1.150415        -0.261911        -0.468280
 O         1.784081        -1.460360        -0.145411
 C         2.659769        -0.462754        -0.576798
 C         2.681603        -0.477900        -2.077638
 C         3.029319        -1.683438        -2.984568
 O         1.832752        -1.770902        -3.900877
 C         0.760349        -1.497654        -2.926164
 C         1.133141        -0.361761        -2.107008
 H         0.841830         1.133058         1.193095
 H        -0.024744         1.499159        -0.276033
 H        -0.609421         0.043613         0.792367
 H         3.470057        -0.065352         0.173959
 H         3.017997         0.444156        -2.528194
 H         3.950487        -1.633245        -3.590792
 H         3.026008        -2.615779        -2.445171
 H        -0.102268        -1.471553        -3.537309
 H         0.482291        -2.460272        -2.331847
 H         0.898626         0.638326        -2.479294
