19
Iteration:  4856charge 0 multiplicity 1
 C         0.236779         0.334994         0.360291
 C         1.177219        -0.219116        -0.665463
 O         1.733921        -1.525225        -0.438719
 C         2.626097        -0.525542        -0.606420
 C         2.769022        -0.273450        -2.167269
 C         3.076431        -1.576354        -2.952178
 O         1.745878        -2.153855        -3.290268
 C         0.639715        -1.241101        -2.916081
 C         1.296342        -0.042522        -2.243233
 H         0.321863        -0.243411         1.218632
 H         0.522992         1.486174         0.641063
 H        -0.767103         0.335998         0.011039
 H         3.302584        -0.276635         0.095301
 H         3.425765         0.705464        -2.396828
 H         3.714054        -1.574432        -3.825880
 H         3.651076        -2.148367        -2.239239
 H         0.185719        -1.068699        -3.825381
 H        -0.038389        -1.909476        -2.361202
 H         1.078382         0.939252        -2.606858
