19
Iteration:  4842
 C         0.183693         0.369206         0.304752
 C         1.180573        -0.265371        -0.638939
 O         1.712817        -1.616404        -0.449850
 C         2.701363        -0.374550        -0.616266
 C         2.831527        -0.340491        -2.162964
 C         3.030650        -1.588138        -3.002890
 O         1.773678        -2.116526        -3.250844
 C         0.717494        -1.250325        -2.924211
 C         1.231105        -0.056425        -2.153023
 H         0.077968        -0.114414         1.286919
 H         0.600489         1.453447         0.479539
 H        -0.846785         0.464089        -0.122618
 H         3.374183        -0.314598         0.269213
 H         3.415446         0.499193        -2.631758
 H         3.449452        -1.236320        -3.914759
 H         3.575868        -2.452710        -2.548927
 H         0.056398        -0.889114        -3.788793
 H         0.055451        -1.671322        -2.194026
 H         0.879187         0.921526        -2.535286
