19
Iteration:  4291
 C         0.451302         0.494047         0.384645
 C         1.161929        -0.227043        -0.598541
 O         1.686582        -1.426836        -0.124173
 C         2.638610        -0.489571        -0.577041
 C         2.663866        -0.382828        -2.099943
 C         3.076424        -1.579631        -2.945310
 O         1.863501        -1.929647        -3.734866
 C         0.675737        -1.481502        -2.983696
 C         1.068048        -0.278680        -2.257173
 H         0.945600         0.408138         1.313235
 H         0.188414         1.584746         0.150132
 H        -0.631547         0.071684         0.601269
 H         3.385136        -0.023677         0.192161
 H         3.107903         0.568924        -2.280064
 H         3.866199        -1.534441        -3.717111
 H         3.220790        -2.459521        -2.369015
 H        -0.134709        -1.264477        -3.635001
 H         0.470295        -2.154894        -2.072339
 H         0.884286         0.720344        -2.758300
