19
Iteration:   320charge 0 multiplicity 1
 C         0.317907         0.203254         0.456644
 C         1.263429        -0.108843        -0.635165
 O         2.104721        -1.181106        -0.380110
 C         2.657018         0.042384        -0.923143
 C         2.529578        -0.100776        -2.479403
 C         2.966623        -1.594309        -2.893053
 O         1.843531        -2.336100        -3.265804
 C         0.614389        -1.780381        -2.672773
 C         0.956115        -0.324038        -2.195659
 H        -0.379473         1.127154         0.191692
 H        -0.318988        -0.652335         0.511584
 H         0.728455         0.325460         1.540333
 H         3.508873         0.683674        -0.316396
 H         2.906215         0.795778        -3.000550
 H         3.714436        -1.532681        -3.784117
 H         3.518474        -2.053157        -2.123878
 H        -0.148222        -1.771891        -3.472477
 H         0.311508        -2.269189        -1.745742
 H         0.274940         0.448958        -2.594857
