19
Iteration:  1770
 C         0.288181         0.414857         0.372207
 C         1.217673        -0.170909        -0.662664
 O         2.043093        -1.292021        -0.315683
 C         2.721232        -0.199461        -0.921523
 C         2.419572        -0.197214        -2.468610
 C         3.020834        -1.364077        -3.075368
 O         1.885207        -2.272209        -3.267128
 C         0.718712        -1.802850        -2.481136
 C         0.924670        -0.347880        -2.179312
 H         0.120541         1.551894         0.286967
 H        -0.759820        -0.037708         0.497686
 H         0.732908         0.214818         1.474507
 H         3.656728         0.341840        -0.349134
 H         2.682302         0.846963        -2.924496
 H         3.373576        -0.977750        -4.053797
 H         3.837046        -1.882155        -2.485952
 H        -0.051811        -2.118257        -3.195505
 H         0.591802        -2.431951        -1.641121
 H         0.180360         0.398006        -2.525150
