19
Iteration:  2773charge 0 multiplicity 1
 C         0.358274         0.189224         0.410243
 C         1.192669        -0.317418        -0.734235
 O         2.355683        -1.243532        -0.319701
 C         2.587522         0.071877        -0.904827
 C         2.484143        -0.071297        -2.448458
 C         2.924180        -1.545359        -2.940213
 O         1.799529        -2.394023        -2.867190
 C         0.592351        -1.630994        -2.943150
 C         0.920241        -0.297769        -2.258513
 H        -0.098344         1.074549         0.237590
 H        -0.483690        -0.487147         0.478603
 H         1.020007         0.193477         1.363202
 H         3.085685         0.800636        -0.131311
 H         2.818367         0.913484        -2.879824
 H         3.164480        -1.368737        -4.046017
 H         3.825763        -1.929112        -2.380196
 H         0.302846        -1.293563        -4.034979
 H        -0.211273        -2.292721        -2.546176
 H         0.334776         0.674706        -2.462329
