19
Iteration:  2994
 C         0.164894         0.475826         0.274599
 C         1.178761        -0.258539        -0.556734
 O         2.245872        -1.168381        -0.060361
 C         2.637581         0.096060        -0.759289
 C         2.604669        -0.269581        -2.321157
 C         2.976818        -1.630830        -3.157544
 O         1.687898        -2.033135        -3.686929
 C         0.768115        -1.936009        -2.570489
 C         1.018828        -0.551378        -2.070136
 H         0.284839         1.558355        -0.001953
 H        -0.814923         0.057363         0.145107
 H         0.380681         0.321623         1.314736
 H         3.164544         0.687603        -0.136066
 H         2.662805         0.572172        -3.039043
 H         3.688865        -1.446502        -3.983010
 H         3.376969        -2.309597        -2.469242
 H        -0.241611        -2.025947        -3.012467
 H         0.947545        -2.685117        -1.679845
 H         0.364821         0.267109        -2.489812
