19
Iteration:   292
 C         0.303255         0.315754         0.401742
 C         1.205200        -0.258080        -0.662831
 O         2.230173        -1.259610        -0.391783
 C         2.643877        -0.008347        -0.892363
 C         2.499926        -0.129052        -2.444894
 C         3.018631        -1.533277        -2.921190
 O         1.863438        -2.308629        -3.137554
 C         0.533312        -1.709581        -2.756472
 C         0.924901        -0.308815        -2.196900
 H        -0.601111         0.724856         0.130652
 H        -0.135805        -0.619127         1.005764
 H         0.855370         0.929290         1.049153
 H         3.384428         0.455279        -0.370593
 H         2.797616         0.741215        -3.040597
 H         3.512368        -1.367157        -3.830857
 H         3.690514        -2.007306        -2.073883
 H        -0.140995        -1.751499        -3.626301
 H         0.166063        -2.171558        -1.818541
 H         0.377158         0.604725        -2.516346
