19
Iteration:  1650
 C         0.299157         0.261755         0.404311
 C         1.161646        -0.216181        -0.640494
 O         2.315143        -1.063173        -0.127006
 C         2.631714         0.096061        -0.919384
 C         2.521204        -0.276747        -2.319877
 C         2.924028        -1.695347        -2.792141
 O         1.764663        -2.065765        -3.654770
 C         0.639437        -1.847316        -2.729692
 C         0.964769        -0.436109        -2.191265
 H        -0.491227         0.834089         0.087359
 H        -0.126970        -0.520691         1.078874
 H         0.950307         0.869982         1.101991
 H         3.480007         0.796450        -0.630502
 H         2.904769         0.473891        -3.046444
 H         3.796713        -1.712775        -3.392208
 H         2.863724        -2.324801        -1.923188
 H        -0.322875        -1.889549        -3.274292
 H         0.592596        -2.561965        -1.843602
 H         0.324533         0.350261        -2.630995
