19
Iteration:  1477charge 0 multiplicity 1
 C         0.346721         0.453037         0.330496
 C         1.237287        -0.238447        -0.563550
 O         2.036762        -1.365970        -0.266717
 C         2.654097        -0.063567        -0.902647
 C         2.468897        -0.162218        -2.413629
 C         2.936745        -1.379085        -3.143383
 O         1.944692        -2.323107        -3.100989
 C         0.699450        -1.769608        -2.749516
 C         0.925428        -0.369374        -2.134610
 H        -0.058635         1.297953        -0.107350
 H        -0.530382        -0.234246         0.685111
 H         0.959411         0.952084         1.162012
 H         3.510203         0.261537        -0.439098
 H         2.558064         0.772187        -2.768206
 H         3.315177        -1.218697        -4.150896
 H         3.852052        -1.804228        -2.747031
 H        -0.097140        -1.594556        -3.455434
 H         0.363235        -2.478993        -2.044870
 H         0.151351         0.286736        -2.552979
