19
Iteration:   919
 C         0.279422         0.127603         0.474237
 C         1.256443        -0.251185        -0.626788
 O         2.360021        -1.127216        -0.283028
 C         2.631845         0.155703        -0.938042
 C         2.468344        -0.145686        -2.431527
 C         2.975106        -1.557303        -2.959606
 O         1.723053        -2.461503        -3.071872
 C         0.549127        -1.589509        -2.917431
 C         0.992511        -0.338517        -2.232106
 H        -0.541110         0.693851         0.182269
 H        -0.064629        -0.816096         1.066565
 H         0.843853         0.778670         1.084508
 H         3.478010         0.864643        -0.410014
 H         2.695512         0.693833        -3.077159
 H         3.516557        -1.481389        -3.920342
 H         3.554471        -2.084295        -2.123155
 H         0.141099        -1.390877        -3.935394
 H        -0.227101        -2.219463        -2.364499
 H         0.393825         0.437618        -2.476253
