19
Iteration:  2644
 C         0.383892         0.547849         0.338563
 C         1.167607        -0.251222        -0.622903
 O         2.059926        -1.301630        -0.216081
 C         2.612969        -0.183704        -0.808726
 C         2.468749        -0.149927        -2.359006
 C         2.965580        -1.311395        -3.251115
 O         2.005865        -2.321033        -3.148987
 C         0.690887        -1.865441        -2.733878
 C         0.856528        -0.452342        -2.122068
 H        -0.219051         1.391120        -0.315432
 H        -0.231617        -0.111861         0.939491
 H         0.990445         1.059566         1.228630
 H         3.456255         0.395187        -0.270701
 H         2.445225         0.945262        -2.746359
 H         3.093218        -0.884253        -4.264877
 H         3.976716        -1.815585        -3.055534
 H         0.069220        -1.847600        -3.600018
 H         0.347869        -2.590082        -2.042370
 H         0.215033         0.275351        -2.544399
