19
Iteration:  2221
 C         0.127159         0.156582         0.377848
 C         1.291981        -0.093513        -0.608558
 O         2.259301        -1.130022        -0.283635
 C         2.732219         0.000395        -0.927525
 C         2.545685        -0.120276        -2.480711
 C         2.962290        -1.522576        -3.031503
 O         1.794513        -2.383092        -3.098629
 C         0.571245        -1.712415        -2.746206
 C         0.982736        -0.344229        -2.154618
 H        -0.625732         0.842895        -0.036623
 H        -0.311988        -0.879593         0.432073
 H         0.317742         0.388623         1.450483
 H         3.729609         0.534974        -0.447023
 H         2.843136         0.757899        -3.018908
 H         3.428201        -1.373120        -4.003094
 H         3.693312        -2.149398        -2.494628
 H        -0.165760        -1.603144        -3.549305
 H         0.224039        -2.298065        -1.980671
 H         0.401264         0.497852        -2.606278
