19
Iteration:  4957
 C         0.105163         0.390030         0.287444
 C         1.210409        -0.228517        -0.561790
 O         1.837776        -1.559599        -0.145860
 C         2.710278        -0.476314        -0.597005
 C         2.794476        -0.358844        -2.123485
 C         2.975835        -1.642959        -3.102227
 O         1.717488        -2.124475        -3.359835
 C         0.721846        -1.145888        -3.120198
 C         1.282933        -0.118754        -2.160502
 H         0.402270         1.025938         1.232606
 H        -0.386336         1.071978        -0.368459
 H        -0.670611        -0.362314         0.600052
 H         3.423591        -0.124499         0.287746
 H         3.403692         0.403944        -2.584928
 H         3.478930        -1.328062        -3.984174
 H         3.480980        -2.383650        -2.581831
 H         0.524980        -0.709916        -4.083076
 H        -0.204489        -1.749835        -2.847635
 H         0.992310         0.936212        -2.270872
