19
Iteration:  3873
 C         0.169854         0.291606         0.389061
 C         1.279486        -0.178561        -0.593524
 O         2.005224        -1.394940        -0.218001
 C         2.761393        -0.180279        -0.644052
 C         2.744409        -0.335882        -2.219723
 C         2.863877        -1.699008        -2.830946
 O         1.735378        -2.007437        -3.711195
 C         0.599365        -1.441037        -2.878368
 C         1.169821        -0.277757        -2.182374
 H        -0.850274         0.489375        -0.179085
 H        -0.070780        -0.449285         1.183760
 H         0.392782         1.227657         0.868931
 H         3.591142         0.084117        -0.018940
 H         3.200423         0.388684        -2.919757
 H         3.848248        -1.680731        -3.323830
 H         2.913499        -2.501190        -2.004580
 H        -0.001301        -0.977331        -3.624703
 H         0.150818        -2.176510        -2.172548
 H         0.863782         0.759493        -2.666430
