19
Iteration:   519charge 0 multiplicity 1
 C         0.234481         0.199827         0.310186
 C         1.271604        -0.196578        -0.636759
 O         2.182604        -1.153436        -0.243462
 C         2.755931         0.008667        -0.925036
 C         2.493632        -0.161479        -2.456518
 C         2.996763        -1.512068        -3.090260
 O         1.846532        -2.350563        -3.121064
 C         0.531602        -1.704586        -2.651577
 C         0.969211        -0.319673        -2.135394
 H        -0.782616         0.624315        -0.142422
 H         0.005572        -0.752498         0.766718
 H         0.562056         0.941622         1.014477
 H         3.527131         0.384923        -0.317968
 H         2.844167         0.594588        -3.113199
 H         3.230050        -1.226633        -4.182675
 H         3.861152        -1.947344        -2.590846
 H        -0.061734        -1.636731        -3.513735
 H        -0.011928        -2.260877        -1.861899
 H         0.276154         0.446994        -2.426145
