19
Iteration:   870
 C         0.331799         0.059142         0.498499
 C         1.198968        -0.337616        -0.702702
 O         2.330454        -1.122821        -0.347015
 C         2.639537         0.131263        -0.912426
 C         2.508118        -0.094853        -2.516228
 C         2.859141        -1.569697        -2.958905
 O         1.742540        -2.430685        -2.814049
 C         0.627799        -1.572196        -2.987832
 C         1.011090        -0.280697        -2.243190
 H        -0.491775         0.846597         0.168379
 H        -0.139305        -0.827072         0.915764
 H         0.974425         0.598968         1.346199
 H         3.248762         0.794112        -0.368863
 H         2.768745         0.687389        -3.268060
 H         3.036172        -1.511852        -4.083859
 H         3.615769        -1.954348        -2.286190
 H         0.439902        -1.259853        -4.013340
 H        -0.095573        -2.271360        -2.605559
 H         0.311519         0.598555        -2.572579
