19
Iteration:  3094
 C         0.274072         0.308583         0.442383
 C         1.238322        -0.220468        -0.653926
 O         2.162268        -1.263853        -0.287924
 C         2.642241        -0.009497        -0.867758
 C         2.473573        -0.164173        -2.410544
 C         2.928082        -1.528178        -2.940026
 O         1.853605        -2.316903        -3.280927
 C         0.636876        -1.672705        -2.786395
 C         1.007594        -0.317016        -2.173369
 H        -0.831877         0.334083         0.044791
 H         0.561360        -0.407186         1.188439
 H         0.493267         1.262956         0.768225
 H         3.583641         0.383773        -0.334985
 H         2.882979         0.675765        -3.013381
 H         3.649137        -1.355527        -3.788221
 H         3.448767        -1.904210        -2.123144
 H        -0.159401        -1.646859        -3.592815
 H         0.284877        -2.345350        -1.922065
 H         0.372946         0.406996        -2.683433
