19
Iteration:  1531
 C         0.395863         0.411660         0.424396
 C         1.181603        -0.233069        -0.634736
 O         1.932050        -1.273459        -0.263172
 C         2.671663        -0.225097        -0.888719
 C         2.450958        -0.112464        -2.519735
 C         2.928047        -1.273150        -3.325484
 O         2.034164        -2.408737        -2.829839
 C         0.711684        -1.768641        -2.782082
 C         0.992172        -0.353708        -2.190071
 H         0.397504         1.484326         0.320445
 H        -0.702588         0.037957         0.485060
 H         0.890188         0.097931         1.421461
 H         3.293051         0.319153        -0.252533
 H         2.672111         0.820554        -2.799299
 H         2.481677        -1.131991        -4.325046
 H         3.984418        -1.553377        -3.212752
 H         0.121325        -1.620374        -3.764218
 H         0.123668        -2.395881        -2.073433
 H         0.248836         0.372606        -2.532148
