19
Iteration:  4810charge 0 multiplicity 1
 C         0.144913         0.387289         0.228885
 C         1.258654        -0.222867        -0.660267
 O         1.763659        -1.561808        -0.205057
 C         2.766126        -0.599053        -0.523358
 C         2.737745        -0.373657        -2.197001
 C         2.962246        -1.438388        -3.099046
 O         1.745507        -2.170180        -3.223290
 C         0.711860        -1.180619        -3.049590
 C         1.241641        -0.116056        -2.159050
 H         0.205649         0.028939         1.275231
 H         0.373379         1.582825         0.176398
 H        -0.836915         0.260081        -0.258612
 H         3.557138        -0.361222         0.259383
 H         3.247239         0.658496        -2.447458
 H         3.472727        -1.017444        -3.981098
 H         3.692144        -2.232123        -2.826002
 H         0.316158        -0.940933        -4.032866
 H        -0.046194        -1.764027        -2.490204
 H         0.930628         0.874199        -2.530020
