19
Iteration:  1281
 C         0.316076         0.367005         0.336367
 C         1.238680        -0.195058        -0.712269
 O         1.996168        -1.341039        -0.388629
 C         2.679414        -0.174386        -0.895287
 C         2.557948        -0.052826        -2.362730
 C         2.899968        -1.378522        -3.171210
 O         1.929481        -2.369005        -3.086722
 C         0.689323        -1.760043        -2.501820
 C         0.988311        -0.283880        -2.179071
 H        -0.114506         1.103333        -0.154319
 H        -0.443257        -0.331652         0.672186
 H         0.808359         0.672032         1.260095
 H         3.367351         0.333921        -0.238671
 H         2.671620         0.961416        -2.894700
 H         2.966505        -1.206442        -4.227317
 H         3.802766        -1.793537        -2.774533
 H        -0.098668        -1.765803        -3.263243
 H         0.458173        -2.442906        -1.583101
 H         0.286144         0.427952        -2.588637
