19
Iteration:  2984
 C         0.126270         0.513625         0.304722
 C         1.183101        -0.209171        -0.578727
 O         2.323186        -1.212804        -0.043247
 C         2.682565         0.001599        -0.753668
 C         2.540547        -0.312636        -2.354099
 C         2.956264        -1.531530        -3.052688
 O         1.683999        -2.045200        -3.698667
 C         0.797048        -1.954714        -2.602936
 C         0.973852        -0.506313        -2.095707
 H         0.165203         1.653173         0.115352
 H        -0.880514         0.391773        -0.018801
 H         0.239038         0.406465         1.311280
 H         3.360355         0.655415        -0.240816
 H         2.622565         0.606209        -2.966597
 H         3.620789        -1.396708        -3.948930
 H         3.345801        -2.338069        -2.428064
 H        -0.196601        -2.345607        -3.028602
 H         1.159744        -2.735400        -1.863185
 H         0.285497         0.099034        -2.697997
