19
Iteration:  3534
 C         0.428862         0.497360         0.431641
 C         1.188812        -0.163331        -0.616987
 O         1.918233        -1.362000        -0.227174
 C         2.673891        -0.286395        -0.721572
 C         2.510277        -0.277598        -2.248920
 C         3.062545        -1.491107        -3.008294
 O         1.845246        -2.148794        -3.540997
 C         0.671422        -1.692190        -2.781333
 C         0.952908        -0.301406        -2.205074
 H        -0.780415         0.126817         0.398842
 H         0.752824         0.095367         1.488267
 H         0.460973         1.586940         0.391328
 H         3.417188         0.208988         0.028489
 H         2.752755         0.692269        -2.680784
 H         3.685741        -1.281589        -3.904749
 H         3.669876        -2.220856        -2.285795
 H        -0.086880        -1.790688        -3.679613
 H         0.290351        -2.484700        -2.117626
 H         0.698321         0.686579        -2.780159
