19
Iteration:  1066charge 0 multiplicity 1
 C         0.374342         0.571355         0.332783
 C         1.194364        -0.225132        -0.569815
 O         2.210676        -1.105501        -0.003841
 C         2.627511         0.040200        -0.775343
 C         2.419658        -0.308831        -2.329607
 C         2.949038        -1.543770        -3.088808
 O         1.769577        -2.100369        -3.681828
 C         0.779841        -2.007955        -2.736106
 C         0.910103        -0.613823        -2.042649
 H        -0.095153         1.459959        -0.276673
 H        -0.409198         0.065415         0.737340
 H         1.039225         1.048176         1.171122
 H         3.227172         0.701374        -0.260462
 H         2.518036         0.539889        -3.064862
 H         3.692763        -1.376553        -3.938903
 H         3.427324        -2.414504        -2.529912
 H        -0.311393        -2.191013        -3.044021
 H         0.964257        -2.763809        -1.942793
 H         0.153439         0.158170        -2.599116
