19
Iteration:  3155
 C         0.272566         0.235717         0.245237
 C         1.253051        -0.286995        -0.607395
 O         2.146869        -1.280240        -0.171259
 C         2.715959        -0.048752        -0.796152
 C         2.624132        -0.165549        -2.372571
 C         2.932681        -1.413210        -3.177566
 O         1.801262        -2.361176        -3.094156
 C         0.567271        -1.597497        -2.796681
 C         0.992963        -0.318341        -2.198099
 H        -0.282209        -0.535745         0.588163
 H         0.619297         0.714366         1.186133
 H        -0.410572         1.081641        -0.149534
 H         3.280887         0.561320        -0.189788
 H         3.083666         0.743530        -2.800830
 H         3.171608        -1.267329        -4.205718
 H         3.834890        -1.960216        -2.690297
 H        -0.097319        -1.348465        -3.761299
 H         0.011647        -2.224348        -2.131752
 H         0.267978         0.497374        -2.381452
