19
Iteration:  1944
 C         0.234844         0.157187         0.363579
 C         1.243351        -0.273941        -0.659495
 O         2.252507        -1.223217        -0.256486
 C         2.663735         0.124018        -0.947537
 C         2.577007        -0.121245        -2.399951
 C         2.921826        -1.495789        -3.089883
 O         1.818545        -2.403857        -2.954751
 C         0.602323        -1.643986        -2.797369
 C         0.960681        -0.329836        -2.228447
 H         0.009205         1.297942         0.305913
 H        -0.731214        -0.223264         0.325056
 H         0.592528        -0.050325         1.385725
 H         3.238332         0.869303        -0.167937
 H         2.914279         0.710657        -3.209996
 H         3.159139        -1.286442        -4.215260
 H         3.809635        -2.173126        -2.768762
 H         0.199767        -1.559148        -3.876290
 H        -0.067925        -2.179961        -2.071482
 H         0.250218         0.497319        -2.437513
