19
Iteration:  2613
 C         0.450482         0.486052         0.504488
 C         1.125587        -0.209648        -0.603614
 O         1.974851        -1.289236        -0.214809
 C         2.566081        -0.120878        -0.905091
 C         2.473773        -0.110801        -2.400449
 C         3.006596        -1.323977        -3.232259
 O         2.047040        -2.391996        -3.150160
 C         0.702979        -1.853742        -2.730614
 C         0.851269        -0.408482        -2.222166
 H        -0.097988         1.505889         0.231746
 H        -0.377108        -0.076032         0.788219
 H         1.117789         0.863911         1.284397
 H         3.383293         0.389974        -0.181482
 H         2.686476         0.908726        -2.844712
 H         3.035195        -0.977744        -4.315016
 H         3.927981        -1.928261        -3.019113
 H         0.081095        -2.102149        -3.608274
 H         0.455962        -2.622847        -1.928347
 H         0.263364         0.299315        -2.716271
