19
Iteration:  4214charge 0 multiplicity 1
 C         0.179904         0.220261         0.253787
 C         1.322171        -0.230573        -0.685356
 O         1.832039        -1.426229        -0.171466
 C         2.756228        -0.438532        -0.580185
 C         2.812397        -0.313803        -2.229681
 C         3.015160        -1.630087        -2.891088
 O         1.699927        -2.022293        -3.502561
 C         0.542228        -1.316028        -2.909329
 C         1.250438        -0.109464        -2.198369
 H         0.298452        -0.139825         1.226116
 H         0.136031         1.369533         0.272652
 H        -0.784258        -0.045290        -0.300616
 H         3.432616         0.001207         0.087140
 H         3.211764         0.528279        -2.722801
 H         3.703316        -1.655642        -3.750823
 H         3.297599        -2.412631        -2.227840
 H        -0.093155        -0.926032        -3.672289
 H        -0.176770        -1.790500        -2.072518
 H         0.864995         0.935570        -2.406550
