19
Iteration:   568charge 0 multiplicity 1
 C         0.355297         0.088850         0.427335
 C         1.216234        -0.309974        -0.678210
 O         2.315398        -1.123707        -0.314085
 C         2.601988         0.176534        -0.905809
 C         2.549364        -0.137266        -2.429700
 C         2.938805        -1.567902        -3.029151
 O         1.750408        -2.410579        -2.829989
 C         0.579963        -1.612219        -2.996981
 C         0.931103        -0.351625        -2.199870
 H         0.007564         1.027561         0.265545
 H        -0.597822        -0.612799         0.553227
 H         1.061977         0.337188         1.262395
 H         3.240311         0.988687        -0.453640
 H         2.669349         0.664362        -3.216304
 H         3.252118        -1.471485        -4.032622
 H         3.601385        -2.079219        -2.313610
 H         0.453865        -1.253403        -4.076763
 H        -0.255397        -2.200318        -2.593553
 H         0.393449         0.578768        -2.556369
