19
Iteration:  2100charge 0 multiplicity 1
 C         0.307097         0.295112         0.349728
 C         1.188531        -0.269098        -0.695023
 O         2.141501        -1.264488        -0.131311
 C         2.625748        -0.065862        -0.871055
 C         2.572581        -0.129725        -2.380730
 C         2.887603        -1.383637        -3.302527
 O         1.892937        -2.372946        -2.957406
 C         0.651511        -1.738908        -2.782425
 C         0.993371        -0.346383        -2.170111
 H        -0.119965         1.105707        -0.186725
 H        -0.473006        -0.338869         0.773205
 H         0.844490         0.933733         1.165867
 H         3.289905         0.597809        -0.441640
 H         2.863915         0.762479        -2.903961
 H         2.769400        -1.005412        -4.263907
 H         3.884236        -1.782325        -3.236500
 H         0.089241        -1.535457        -3.725915
 H         0.178476        -2.461086        -2.230323
 H         0.358264         0.445153        -2.516752
