19
Iteration:  2177charge 0 multiplicity 1
 C         0.311685         0.113389         0.448835
 C         1.191204        -0.246761        -0.741597
 O         2.340713        -1.134534        -0.366106
 C         2.616685         0.130283        -0.921436
 C         2.563306        -0.115497        -2.392466
 C         2.959212        -1.538873        -2.845596
 O         1.730982        -2.375613        -3.076433
 C         0.554383        -1.695436        -2.796983
 C         0.972419        -0.330421        -2.323616
 H        -0.026117         1.179105         0.416313
 H        -0.643794        -0.490766         0.454239
 H         0.811504        -0.223301         1.408081
 H         3.293840         0.816458        -0.288578
 H         2.914996         0.690303        -3.001598
 H         3.577604        -1.572713        -3.690043
 H         3.532135        -1.846002        -1.978436
 H         0.124564        -1.592228        -3.766319
 H        -0.079304        -2.146495        -2.129730
 H         0.273897         0.420933        -2.702242
