19
Iteration:  3007
 C         0.260581         0.354668         0.294185
 C         1.205546        -0.232205        -0.592972
 O         2.145581        -1.091380        -0.054014
 C         2.641840         0.035122        -0.811504
 C         2.536008        -0.270997        -2.321607
 C         2.965382        -1.608405        -3.112019
 O         1.724266        -2.068761        -3.638384
 C         0.730334        -1.884848        -2.595852
 C         1.087878        -0.510031        -2.041718
 H        -0.109480         1.427489        -0.041240
 H        -0.732679        -0.074446         0.204370
 H         0.588406         0.438406         1.224811
 H         3.316975         0.879815        -0.397851
 H         2.879834         0.671934        -2.768160
 H         3.571194        -1.423810        -4.065494
 H         3.444013        -2.478334        -2.566837
 H        -0.368162        -2.006925        -3.084835
 H         0.867262        -2.779729        -1.937067
 H         0.443584         0.189281        -2.543519
