19
Iteration:   801
 C         0.167833         0.342647         0.320784
 C         1.224422        -0.215608        -0.636525
 O         2.222656        -1.239281        -0.328627
 C         2.735669        -0.071086        -0.887737
 C         2.473016        -0.161101        -2.423328
 C         2.892769        -1.417758        -3.233274
 O         1.920061        -2.327298        -3.022747
 C         0.643370        -1.825286        -2.558371
 C         0.974670        -0.320896        -2.170393
 H         0.055817         1.408143         0.236102
 H        -0.838366        -0.209772         0.129714
 H         0.469838         0.206816         1.305406
 H         3.626078         0.354714        -0.246747
 H         2.619576         0.730266        -2.940063
 H         2.807827        -1.017241        -4.290198
 H         3.868295        -1.872311        -2.972203
 H         0.037591        -1.845684        -3.431901
 H         0.205924        -2.346954        -1.741212
 H         0.480337         0.553519        -2.583824
