19
Iteration:  1069charge 0 multiplicity 1
 C         0.369190         0.575582         0.329850
 C         1.201035        -0.250897        -0.576765
 O         2.210116        -1.102153        -0.003190
 C         2.629226         0.042172        -0.771618
 C         2.401756        -0.307353        -2.349794
 C         2.968515        -1.547282        -3.088812
 O         1.770888        -2.096678        -3.695001
 C         0.745232        -1.991373        -2.707167
 C         0.936513        -0.607751        -2.048137
 H        -0.088283         1.321044        -0.334438
 H        -0.454421        -0.033293         0.832460
 H         0.914325         1.041019         1.148120
 H         3.297668         0.767949        -0.296422
 H         2.595933         0.497304        -3.067903
 H         3.672744        -1.416729        -3.904396
 H         3.400835        -2.356786        -2.426643
 H        -0.373703        -2.180327        -3.029951
 H         1.020075        -2.726540        -1.889908
 H         0.249752         0.189171        -2.545902
