19
Iteration:  1259charge 0 multiplicity 1
 C         0.226794         0.355113         0.363499
 C         1.268014        -0.144568        -0.659279
 O         2.077903        -1.320367        -0.299875
 C         2.726150        -0.168612        -0.867600
 C         2.494353        -0.191776        -2.416645
 C         2.925141        -1.326545        -3.294930
 O         1.917679        -2.335122        -2.929998
 C         0.656126        -1.729838        -2.673587
 C         0.976507        -0.330254        -2.191228
 H        -0.002548         1.292261         0.074978
 H        -0.675879        -0.249904         0.408855
 H         0.623088         0.333650         1.383367
 H         3.595849         0.212677        -0.315263
 H         2.841837         0.658467        -3.098616
 H         2.978286        -1.020768        -4.322129
 H         3.830347        -1.714850        -2.910911
 H         0.076473        -1.832689        -3.593880
 H         0.187912        -2.322788        -1.781709
 H         0.290593         0.436562        -2.509767
