19
Iteration:  1870
 C         0.223284         0.175258         0.405644
 C         1.206424        -0.233290        -0.657794
 O         2.338105        -1.264724        -0.344490
 C         2.632640         0.039835        -0.889509
 C         2.594086        -0.129893        -2.430462
 C         2.962305        -1.521088        -3.053796
 O         1.776224        -2.364933        -2.865856
 C         0.571096        -1.592667        -2.871064
 C         0.941937        -0.310464        -2.233888
 H        -0.556638         0.689585        -0.026947
 H        -0.238763        -0.700223         0.976296
 H         0.661948         0.828131         1.303663
 H         3.308329         0.848508        -0.330499
 H         2.964191         0.712770        -3.078692
 H         2.981198        -1.428052        -4.138928
 H         3.927823        -2.019049        -2.873925
 H         0.249704        -1.424749        -3.894461
 H        -0.112675        -2.269579        -2.435094
 H         0.359794         0.572204        -2.582542
