19
Iteration:  4112charge 0 multiplicity 1
 C         0.229552         0.407521         0.480319
 C         1.181267        -0.207386        -0.557947
 O         1.828019        -1.426017        -0.261133
 C         2.664625        -0.382866        -0.645426
 C         2.725329        -0.432380        -2.162742
 C         2.965166        -1.769809        -2.864887
 O         1.803840        -1.884417        -3.711219
 C         0.703939        -1.398496        -2.997470
 C         1.220777        -0.199165        -2.175910
 H         0.745669         0.921058         1.433192
 H        -0.294652         1.203635        -0.017761
 H        -0.276013        -0.394804         0.935675
 H         3.272915         0.096137         0.165974
 H         3.377291         0.406734        -2.591076
 H         3.706890        -1.786672        -3.639619
 H         3.127171        -2.571757        -2.197134
 H        -0.035849        -0.805621        -3.595181
 H         0.012452        -2.225661        -2.505224
 H         0.907770         0.788197        -2.588323
