19
Iteration:  4086charge 0 multiplicity 1
 C         0.281246         0.441411         0.276522
 C         1.234350        -0.213846        -0.609754
 O         1.757952        -1.432676        -0.090647
 C         2.714748        -0.476181        -0.581492
 C         2.711772        -0.376130        -2.075561
 C         2.984552        -1.661104        -2.959712
 O         1.734216        -1.837280        -3.804181
 C         0.731259        -1.485836        -2.892468
 C         1.173803        -0.175921        -2.191217
 H         0.694728         0.528583         1.229327
 H        -0.122237         1.395866        -0.049450
 H        -0.425339        -0.418011         0.467567
 H         3.577539        -0.381273         0.146283
 H         3.285140         0.526765        -2.261118
 H         3.749216        -1.682064        -3.745541
 H         3.084900        -2.567112        -2.289421
 H        -0.310489        -1.400017        -3.327928
 H         0.637263        -2.208304        -2.094875
 H         0.909223         0.777519        -2.598654
