19
Iteration:  4241
 C         0.157170         0.424858         0.302678
 C         1.209561        -0.228316        -0.594561
 O         1.856886        -1.521354        -0.413245
 C         2.702221        -0.410919        -0.618716
 C         2.752484        -0.338136        -2.154778
 C         2.980750        -1.620400        -2.874071
 O         1.761383        -2.029325        -3.553902
 C         0.637477        -1.438820        -2.810159
 C         1.248351        -0.077608        -2.146788
 H         0.316980         0.068373         1.398433
 H         0.313805         1.479147         0.349784
 H        -0.862026         0.338187        -0.053926
 H         3.601222        -0.248844         0.081694
 H         3.319591         0.470713        -2.710333
 H         3.678129        -1.417751        -3.718135
 H         3.356391        -2.551429        -2.298341
 H        -0.076285        -1.121413        -3.625724
 H         0.203147        -1.983185        -1.981367
 H         0.939882         0.916648        -2.453875
