19
Iteration:  1180
 C         0.299961         0.257051         0.428895
 C         1.236482        -0.239121        -0.648689
 O         2.234604        -1.216810        -0.322359
 C         2.694480         0.051565        -0.895016
 C         2.427075        -0.111186        -2.490034
 C         2.946949        -1.554135        -2.940832
 O         1.839609        -2.346632        -3.098651
 C         0.596471        -1.675582        -2.822590
 C         0.955233        -0.365634        -2.168110
 H         0.110076         1.235096         0.282379
 H        -0.703161        -0.265718         0.407396
 H         0.737706         0.139263         1.324817
 H         3.382338         0.725392        -0.181680
 H         2.669467         0.599686        -3.264100
 H         3.538112        -1.534886        -3.819527
 H         3.618070        -1.983560        -2.150878
 H         0.100804        -1.459579        -3.774988
 H        -0.059522        -2.435820        -2.300849
 H         0.491333         0.509953        -2.577348
