19
Iteration:  2518
 C         0.231034         0.068080         0.364996
 C         1.254280        -0.167863        -0.639323
 O         2.263592        -1.129078        -0.287247
 C         2.765484         0.034659        -0.864377
 C         2.479762        -0.127103        -2.480276
 C         2.889970        -1.517084        -3.118330
 O         1.849837        -2.410847        -2.875136
 C         0.598588        -1.649021        -2.854056
 C         0.947628        -0.295370        -2.162821
 H        -0.287258         0.973720         0.204877
 H        -0.645283        -0.729196         0.204281
 H         0.592874         0.252155         1.324822
 H         3.394283         0.716408        -0.137041
 H         2.672018         0.701326        -3.120276
 H         2.911724        -1.413194        -4.210132
 H         3.824146        -1.936106        -2.804801
 H         0.336816        -1.486746        -3.864137
 H        -0.121644        -2.398951        -2.483484
 H         0.464770         0.675642        -2.678694
