19
Iteration:  2999
 C         0.189650         0.447602         0.267053
 C         1.226760        -0.276719        -0.568745
 O         2.194419        -1.123956        -0.075085
 C         2.589434         0.073319        -0.772085
 C         2.580430        -0.248143        -2.316110
 C         2.973031        -1.644492        -3.181148
 O         1.711392        -2.035467        -3.669389
 C         0.748559        -1.930760        -2.565753
 C         1.049755        -0.553168        -2.040297
 H         0.251896         1.502377         0.010113
 H        -0.792947        -0.085426         0.163333
 H         0.488429         0.362326         1.359522
 H         3.270424         0.847594        -0.151353
 H         2.814730         0.620456        -2.947927
 H         3.681173        -1.449271        -4.003643
 H         3.414303        -2.448021        -2.440603
 H        -0.314104        -1.958358        -2.945482
 H         0.864268        -2.636263        -1.802804
 H         0.485412         0.263548        -2.442789
