19
Iteration:    13charge 0 multiplicity 1
 C         0.214487         0.392310         0.476794
 C         1.187583        -0.110122        -0.629008
 O         2.142281        -1.105707        -0.172097
 C         2.672081         0.074796        -1.006037
 C         2.465371        -0.224423        -2.494689
 C         3.029437        -1.591401        -2.938019
 O         1.810866        -2.217068        -3.551165
 C         0.773068        -1.924649        -2.544526
 C         0.907116        -0.429856        -2.163956
 H         0.943275         0.722764         1.304514
 H        -0.564347         1.069839         0.340838
 H        -0.178204        -0.592228         0.827175
 H         3.732637         0.242251        -0.569693
 H         2.773387         0.625067        -3.099887
 H         3.813699        -1.618354        -3.661076
 H         3.230923        -2.170863        -1.982970
 H        -0.197492        -2.152138        -3.031287
 H         0.963165        -2.531853        -1.660518
 H         0.187764         0.215999        -2.547439
