19
Iteration:   633
 C         0.244803         0.128963         0.364501
 C         1.223108        -0.179256        -0.707802
 O         2.231890        -1.203087        -0.294296
 C         2.660792         0.055747        -0.944747
 C         2.524047        -0.147113        -2.450349
 C         2.934369        -1.465475        -3.095879
 O         1.844173        -2.429355        -2.934496
 C         0.585537        -1.688766        -2.699282
 C         0.996888        -0.244137        -2.217869
 H         0.173262         1.196557         0.445996
 H        -0.895334        -0.365988         0.278419
 H         0.689771        -0.152248         1.408782
 H         3.418194         0.610234        -0.406228
 H         2.911890         0.760684        -3.041481
 H         3.100461        -1.299428        -4.244066
 H         3.843079        -1.971243        -2.687507
 H         0.152782        -1.728417        -3.679450
 H        -0.057448        -2.172223        -1.961022
 H         0.365591         0.591252        -2.656765
