19
Iteration:  2215
 C         0.134634         0.114964         0.414453
 C         1.244144        -0.146700        -0.669403
 O         2.243243        -1.092485        -0.306890
 C         2.762923         0.034425        -0.950494
 C         2.536138        -0.161172        -2.464389
 C         2.953413        -1.506946        -2.995035
 O         1.789739        -2.384214        -3.100043
 C         0.621648        -1.665281        -2.699633
 C         1.004387        -0.340483        -2.181231
 H        -0.602458         0.911410         0.164345
 H        -0.358673        -0.916413         0.305927
 H         0.419620         0.342222         1.434221
 H         3.704003         0.448295        -0.559799
 H         2.808138         0.758288        -3.045806
 H         3.490530        -1.567866        -3.999158
 H         3.591197        -2.139333        -2.348235
 H        -0.075475        -1.363560        -3.535714
 H         0.012618        -2.357011        -1.944792
 H         0.351031         0.443866        -2.637708
