19
Iteration:  1224
 C         0.329998         0.310508         0.394547
 C         1.222810        -0.243187        -0.653288
 O         2.172069        -1.245547        -0.203899
 C         2.659918         0.044197        -0.823059
 C         2.524116        -0.221012        -2.416599
 C         2.867011        -1.371936        -3.255765
 O         1.883563        -2.455981        -2.885995
 C         0.659777        -1.671831        -2.938488
 C         0.965020        -0.401369        -2.162234
 H         0.413865         1.295507         0.352683
 H        -0.753631         0.100981         0.194705
 H         0.642878         0.112649         1.293911
 H         3.400258         0.717417        -0.109265
 H         2.586992         0.683443        -3.034508
 H         2.804128        -1.162829        -4.278996
 H         3.876185        -1.792488        -3.082187
 H         0.369459        -1.351040        -3.957339
 H        -0.245774        -2.227133        -2.536419
 H         0.227871         0.363203        -2.357899
