19
Iteration:  3600charge 0 multiplicity 1
 C         0.195463         0.291798         0.328467
 C         1.258440        -0.195348        -0.590924
 O         1.974344        -1.337351        -0.237078
 C         2.772101        -0.210341        -0.727902
 C         2.764612        -0.233930        -2.265526
 C         2.992264        -1.572966        -3.016571
 O         1.709140        -2.175479        -3.425177
 C         0.543371        -1.563887        -2.795293
 C         1.164273        -0.214185        -2.149888
 H        -0.085968        -0.783428         0.847148
 H         0.321338         1.191755         1.033832
 H        -0.750757         0.548141        -0.170670
 H         3.554503         0.226235        -0.128474
 H         3.011630         0.667790        -2.799828
 H         3.551448        -1.384139        -3.957538
 H         3.592163        -2.370933        -2.401302
 H        -0.222213        -1.145360        -3.528559
 H        -0.007479        -2.161611        -2.106846
 H         0.761086         0.674620        -2.811288
