19
Iteration:  4096charge 0 multiplicity 1
 C         0.265997         0.416677         0.394311
 C         1.251705        -0.122324        -0.630151
 O         1.781066        -1.492462        -0.113981
 C         2.672717        -0.428389        -0.558347
 C         2.760770        -0.398556        -2.155955
 C         2.987998        -1.703578        -2.955084
 O         1.801147        -1.873994        -3.774350
 C         0.632706        -1.404969        -2.936039
 C         1.161367        -0.171178        -2.163516
 H         0.772175         0.722848         1.213804
 H        -0.418345         1.237142         0.048431
 H        -0.504923        -0.409050         0.621311
 H         3.562092        -0.228666         0.075377
 H         3.285666         0.430756        -2.556506
 H         3.931371        -1.705779        -3.576806
 H         3.017014        -2.641042        -2.269585
 H        -0.186041        -1.553334        -3.670849
 H         0.450149        -2.114395        -2.195090
 H         0.914857         0.753104        -2.661424
