19
Iteration:  2549
 C         0.159299         0.230400         0.246866
 C         1.222668        -0.247835        -0.675290
 O         2.297300        -1.254737        -0.284004
 C         2.689453        -0.094077        -0.925959
 C         2.527737        -0.104855        -2.459490
 C         2.886434        -1.375971        -3.202341
 O         1.897813        -2.339253        -2.862426
 C         0.593212        -1.701858        -2.667431
 C         0.997752        -0.379692        -2.130576
 H         0.000052         1.341289         0.135559
 H        -0.771846        -0.374617         0.075522
 H         0.427871         0.146763         1.270565
 H         3.304477         0.673820        -0.176104
 H         2.690456         0.834441        -2.974580
 H         2.827946        -1.099931        -4.282410
 H         3.879030        -1.794506        -3.007764
 H         0.068564        -1.479525        -3.654135
 H        -0.053826        -2.366984        -1.899326
 H         0.547823         0.573031        -2.589766
