19
Iteration:   782charge 0 multiplicity 1
 C         0.352842         0.424484         0.332167
 C         1.227118        -0.202754        -0.650518
 O         2.070413        -1.280519        -0.235445
 C         2.608624        -0.071653        -0.871508
 C         2.507115        -0.102995        -2.390671
 C         2.925245        -1.287111        -3.276443
 O         1.933188        -2.421836        -3.123777
 C         0.700738        -1.846819        -2.563903
 C         0.946837        -0.440306        -2.183396
 H         0.203392         1.616337         0.150785
 H        -0.671182        -0.069817         0.217058
 H         0.776442         0.390619         1.435605
 H         3.345505         0.471754        -0.218228
 H         2.770312         0.883457        -2.877164
 H         2.933488        -1.106553        -4.432325
 H         3.901033        -1.726913        -2.995513
 H        -0.172346        -1.907118        -3.284352
 H         0.386044        -2.536495        -1.725508
 H         0.200392         0.410153        -2.496851
