19
Iteration:  3244charge 0 multiplicity 1
 C         0.324222         0.395104         0.470438
 C         1.228861        -0.205018        -0.601903
 O         1.991111        -1.422835        -0.336454
 C         2.608723        -0.138098        -0.817514
 C         2.524520        -0.135383        -2.395254
 C         2.928681        -1.403273        -3.110435
 O         1.890282        -2.375548        -3.044623
 C         0.748344        -1.664573        -2.859318
 C         0.993219        -0.251070        -2.229302
 H         0.576362        -0.155568         1.301518
 H         0.673036         1.417204         0.792640
 H        -0.708674         0.457266         0.039867
 H         3.472576         0.129252        -0.069204
 H         2.909804         0.799268        -2.946210
 H         3.115850        -1.205403        -4.167196
 H         3.951847        -1.767309        -2.710599
 H         0.221108        -1.524355        -3.922996
 H         0.013448        -2.287720        -2.306172
 H         0.338326         0.599413        -2.617897
