19
Iteration:  1451
 C         0.217120         0.337118         0.372518
 C         1.200119        -0.188059        -0.648553
 O         2.186904        -1.214531        -0.214817
 C         2.721241        -0.072750        -0.802305
 C         2.561614        -0.219375        -2.394474
 C         2.926953        -1.441319        -3.095307
 O         1.851845        -2.315941        -3.315903
 C         0.604089        -1.777299        -2.625031
 C         0.991868        -0.348759        -2.218280
 H        -0.366904         1.283055        -0.094281
 H        -0.504787        -0.366859         0.710632
 H         0.713898         0.749180         1.191657
 H         3.529671         0.541769        -0.241115
 H         2.690051         0.775060        -2.898086
 H         3.529196        -1.288794        -4.004194
 H         3.704090        -1.956803        -2.511460
 H        -0.265397        -1.628871        -3.345311
 H         0.242556        -2.574417        -1.811626
 H         0.385145         0.347831        -2.798367
