19
Iteration:   383charge 0 multiplicity 1
 C         0.158112         0.433340         0.292552
 C         1.278694        -0.164804        -0.572918
 O         2.304077        -1.098493        -0.076415
 C         2.743709         0.024972        -0.821392
 C         2.408963        -0.210875        -2.349259
 C         2.883450        -1.557258        -2.994131
 O         1.749527        -2.167716        -3.689218
 C         0.742957        -1.965938        -2.592532
 C         0.995748        -0.559347        -2.077619
 H         0.155878         1.597879         0.232123
 H        -0.712748         0.303870        -0.254798
 H         0.246198         0.198842         1.425108
 H         3.525758         0.655466        -0.346545
 H         2.611245         0.705802        -2.965515
 H         3.611543        -1.382294        -3.868826
 H         3.197407        -2.234906        -2.191557
 H        -0.270206        -2.089210        -3.143572
 H         0.915497        -2.795825        -1.918454
 H         0.276616         0.176087        -2.569983
