19
Iteration:  2736
 C         0.282777         0.188586         0.419386
 C         1.241307        -0.173098        -0.670638
 O         2.156386        -1.275464        -0.414485
 C         2.653503         0.028088        -0.969114
 C         2.545359        -0.133169        -2.442898
 C         2.955899        -1.485931        -3.089764
 O         1.926019        -2.388399        -2.883243
 C         0.605817        -1.613170        -2.762267
 C         0.893975        -0.281301        -2.133519
 H        -0.007655         1.295488         0.576666
 H        -0.619842        -0.486935         0.236707
 H         0.552560        -0.122593         1.365910
 H         3.346259         0.531683        -0.438703
 H         2.694810         0.682067        -3.073265
 H         3.280821        -1.568918        -4.140994
 H         3.774111        -1.847290        -2.532322
 H         0.360973        -1.482457        -3.789079
 H        -0.142046        -2.399591        -2.327455
 H         0.253222         0.531851        -2.549316
