19
Iteration:  2092charge 0 multiplicity 1
 C         0.295017         0.367204         0.318241
 C         1.189416        -0.279702        -0.687436
 O         2.085897        -1.268753        -0.179819
 C         2.663486        -0.116106        -0.871265
 C         2.566590        -0.160160        -2.435542
 C         2.861900        -1.335534        -3.280204
 O         1.951968        -2.349071        -2.967017
 C         0.673019        -1.742844        -2.733740
 C         1.007708        -0.358474        -2.132636
 H        -0.358739         1.132683        -0.040525
 H        -0.336780        -0.499920         0.819089
 H         0.856599         0.864071         1.086491
 H         3.480698         0.433432        -0.218048
 H         2.783294         0.792396        -2.869678
 H         2.617221        -1.052669        -4.377178
 H         3.854067        -1.783482        -3.175022
 H         0.064484        -1.688092        -3.704163
 H         0.011704        -2.422481        -2.070592
 H         0.292262         0.480978        -2.446768
