19
Iteration:  2732
 C         0.253077         0.176512         0.395105
 C         1.191465        -0.140897        -0.653419
 O         2.156967        -1.280612        -0.409760
 C         2.669388         0.021957        -0.939615
 C         2.572017        -0.151502        -2.452072
 C         2.945782        -1.476424        -3.149751
 O         1.930964        -2.420414        -2.896572
 C         0.616923        -1.632044        -2.727650
 C         0.879440        -0.269172        -2.121322
 H         0.012833         1.308009         0.618588
 H        -0.630388        -0.416988         0.167450
 H         0.746712        -0.059091         1.425604
 H         3.442080         0.697301        -0.356452
 H         2.856070         0.762504        -3.122933
 H         3.307368        -1.448021        -4.173406
 H         3.801325        -1.901460        -2.507661
 H         0.316070        -1.398485        -3.762336
 H        -0.078630        -2.262544        -2.303552
 H         0.234340         0.460741        -2.521658
