19
Iteration:  3590
 C         0.233631         0.288338         0.269661
 C         1.277318        -0.127215        -0.678277
 O         1.976369        -1.392114        -0.248933
 C         2.739603        -0.235619        -0.736195
 C         2.701295        -0.270848        -2.237699
 C         2.963840        -1.527773        -2.982164
 O         1.719926        -2.141288        -3.392573
 C         0.601569        -1.567463        -2.768648
 C         1.081915        -0.205231        -2.145484
 H        -0.045407        -0.636489         0.978339
 H         0.755564         1.003460         1.005122
 H        -0.692502         0.695069        -0.219257
 H         3.533727         0.063925        -0.121222
 H         3.266039         0.571512        -2.639791
 H         3.484148        -1.259026        -3.931219
 H         3.618111        -2.293483        -2.388140
 H        -0.083195        -1.443165        -3.699090
 H         0.168730        -2.272554        -2.035423
 H         0.605747         0.728248        -2.573286
