19
Iteration:  3003charge 0 multiplicity 1
 C         0.220294         0.407182         0.268040
 C         1.234666        -0.270428        -0.579511
 O         2.163265        -1.099693        -0.074253
 C         2.602507         0.065903        -0.778199
 C         2.553941        -0.249905        -2.318447
 C         2.975836        -1.642910        -3.158077
 O         1.723877        -2.047236        -3.654511
 C         0.725102        -1.904218        -2.584946
 C         1.079681        -0.542592        -2.024576
 H         0.090584         1.459278         0.001505
 H        -0.756611        -0.073014         0.161585
 H         0.570493         0.401110         1.396517
 H         3.187568         0.757514        -0.357013
 H         2.891182         0.663502        -2.848308
 H         3.608652        -1.459761        -4.005483
 H         3.376064        -2.410675        -2.571526
 H        -0.243391        -1.966930        -2.928341
 H         0.869986        -2.787416        -1.804808
 H         0.455404         0.291922        -2.511430
