19
Iteration:  1082
 C         0.257605         0.500817         0.305587
 C         1.230319        -0.274317        -0.533143
 O         2.243973        -1.110708        -0.010433
 C         2.652819         0.007505        -0.891445
 C         2.511213        -0.280685        -2.403352
 C         2.955310        -1.583341        -3.038463
 O         1.747970        -2.086210        -3.718845
 C         0.676596        -1.932986        -2.558771
 C         0.987177        -0.533924        -2.090672
 H        -0.363673         1.110520        -0.265421
 H        -0.518343        -0.222690         0.877301
 H         0.758938         1.150966         0.927804
 H         3.332436         0.827195        -0.388901
 H         2.597504         0.673291        -2.900645
 H         3.742963        -1.440077        -3.727934
 H         3.323074        -2.225492        -2.229131
 H        -0.225431        -2.137278        -3.105479
 H         0.813379        -2.753738        -1.785018
 H         0.367223         0.209240        -2.450140
