19
Iteration:  2253
 C         0.253885         0.320486         0.260065
 C         1.186607        -0.281972        -0.633573
 O         2.227776        -1.184907        -0.190059
 C         2.647278        -0.037521        -0.856109
 C         2.538910        -0.112625        -2.402139
 C         2.929278        -1.434826        -3.194899
 O         1.825844        -2.369952        -3.106148
 C         0.640756        -1.711786        -2.712763
 C         1.020536        -0.451618        -2.125833
 H        -0.501755         0.917535        -0.300640
 H        -0.334757        -0.374901         0.834252
 H         0.857716         0.866355         1.038941
 H         3.351147         0.602364        -0.228208
 H         2.757201         0.836449        -2.868551
 H         3.033523        -0.940928        -4.201156
 H         3.839786        -1.946497        -2.845872
 H        -0.166982        -1.702573        -3.515911
 H         0.267691        -2.358642        -1.927216
 H         0.386447         0.362158        -2.485768
