19
Iteration:  2692charge 0 multiplicity 1
 C         0.246052         0.291391         0.292195
 C         1.278854        -0.183041        -0.675146
 O         2.098459        -1.249803        -0.164230
 C         2.684894        -0.073866        -0.845478
 C         2.556375        -0.194898        -2.407589
 C         2.942334        -1.329263        -3.292174
 O         1.899080        -2.360214        -3.029723
 C         0.626223        -1.754377        -2.675193
 C         0.944274        -0.363928        -2.161394
 H        -0.056449         1.323639        -0.012454
 H        -0.599078        -0.403918         0.427761
 H         0.621719         0.320028         1.254682
 H         3.363601         0.517491        -0.298277
 H         3.026946         0.684466        -2.743573
 H         2.913228        -0.930201        -4.373768
 H         3.894877        -1.794743        -3.163864
 H        -0.056965        -1.747434        -3.554900
 H         0.202513        -2.484722        -1.859548
 H         0.333942         0.438249        -2.613319
