19
Iteration:  2227charge 0 multiplicity 1
 C         0.139512         0.172489         0.342870
 C         1.305868        -0.061318        -0.569188
 O         2.266551        -1.178533        -0.255519
 C         2.741896         0.016256        -0.912867
 C         2.537137        -0.134016        -2.455685
 C         2.968114        -1.532096        -3.071972
 O         1.801045        -2.376862        -3.109903
 C         0.555755        -1.733006        -2.764283
 C         0.974466        -0.318999        -2.146615
 H        -0.623902         0.790628        -0.239050
 H        -0.357005        -0.792419         0.504660
 H         0.366055         0.507624         1.382284
 H         3.476615         0.530533        -0.408439
 H         2.853737         0.751165        -3.070399
 H         3.301127        -1.226204        -4.127812
 H         3.782951        -2.002344        -2.489480
 H        -0.176468        -1.847112        -3.621183
 H         0.166626        -2.387503        -1.851044
 H         0.412922         0.525420        -2.523786
