19
Iteration:   640charge 0 multiplicity 1
 C         0.241285         0.124664         0.384138
 C         1.238722        -0.168720        -0.699344
 O         2.218258        -1.171914        -0.277287
 C         2.666976         0.001782        -0.889409
 C         2.501767        -0.136738        -2.467772
 C         2.959142        -1.502252        -3.143067
 O         1.825026        -2.386979        -2.953023
 C         0.613242        -1.728909        -2.680038
 C         0.989994        -0.254797        -2.269450
 H         0.062470         1.299052         0.303603
 H        -0.689809        -0.303083         0.156713
 H         0.591945        -0.022652         1.396697
 H         3.475164         0.592291        -0.324465
 H         2.895263         0.909334        -2.799786
 H         3.026318        -1.274654        -4.239103
 H         3.857349        -1.975533        -2.753175
 H        -0.041074        -1.736695        -3.620669
 H         0.123674        -2.365317        -1.857200
 H         0.425752         0.667675        -2.620828
