19
Iteration:   750charge 0 multiplicity 1
 C         0.421812         0.670622         0.493957
 C         1.162149        -0.152561        -0.571164
 O         1.996616        -1.249361        -0.200968
 C         2.571780        -0.229807        -0.911783
 C         2.432167        -0.180643        -2.377057
 C         2.973869        -1.258518        -3.298536
 O         2.005187        -2.370292        -3.249030
 C         0.783110        -1.961700        -2.677635
 C         0.875498        -0.580806        -2.187644
 H        -0.038136         1.672474         0.012752
 H        -0.392305         0.043852         0.841712
 H         1.059629         0.942075         1.453575
 H         3.412823         0.215328        -0.310895
 H         2.630682         0.942902        -2.689794
 H         3.083364        -0.933744        -4.322557
 H         3.887498        -1.621024        -2.825515
 H         0.004982        -1.826074        -3.520661
 H         0.455582        -2.635838        -1.796651
 H         0.171038         0.293861        -2.514215
