19
Iteration:  2106charge 0 multiplicity 1
 C         0.308650         0.294525         0.368245
 C         1.217891        -0.255962        -0.608759
 O         2.196499        -1.247800        -0.133248
 C         2.618458        -0.033636        -0.842120
 C         2.530889        -0.151096        -2.368609
 C         2.902054        -1.404820        -3.290466
 O         1.872413        -2.399713        -2.966413
 C         0.638742        -1.708159        -2.831480
 C         0.964473        -0.369444        -2.247615
 H        -0.215683         1.094565        -0.332325
 H        -0.573610        -0.272389         0.743130
 H         0.887945         0.642394         1.199805
 H         3.261094         0.793749        -0.343902
 H         2.914072         0.806859        -2.843948
 H         2.881281        -0.963331        -4.384718
 H         3.912577        -1.882242        -3.205713
 H         0.176463        -1.493313        -3.818711
 H         0.068102        -2.448228        -2.130157
 H         0.365121         0.485585        -2.649859
