19
Iteration:  1722
 C         0.291538         0.372786         0.370206
 C         1.195852        -0.179479        -0.642797
 O         2.202469        -1.197017        -0.093754
 C         2.623463        -0.000887        -0.876495
 C         2.530077        -0.234432        -2.339721
 C         3.002546        -1.478939        -3.146555
 O         1.779362        -2.262886        -3.462380
 C         0.656480        -1.828169        -2.619597
 C         0.970583        -0.432133        -2.136567
 H        -0.096904         1.419624        -0.018669
 H        -0.580730        -0.211645         0.450628
 H         0.681885         0.485601         1.300751
 H         3.327824         0.515097        -0.386787
 H         2.808292         0.794773        -2.710175
 H         3.411460        -1.074982        -4.076036
 H         3.702017        -2.119053        -2.511228
 H        -0.220442        -1.930471        -3.226491
 H         0.588919        -2.588812        -1.813616
 H         0.372230         0.314632        -2.644310
