19
Iteration:  4847charge 0 multiplicity 1
 C         0.182580         0.362962         0.323461
 C         1.204004        -0.275501        -0.645369
 O         1.719642        -1.576734        -0.455274
 C         2.661711        -0.422335        -0.614677
 C         2.808076        -0.331279        -2.153232
 C         3.042985        -1.580345        -2.986377
 O         1.769771        -2.120899        -3.265412
 C         0.699888        -1.233393        -2.916493
 C         1.242937        -0.058164        -2.191458
 H         0.183830        -0.129492         1.311143
 H         0.581788         1.371250         0.533098
 H        -0.829566         0.479938        -0.022149
 H         3.295395        -0.283500         0.266060
 H         3.378216         0.485644        -2.679437
 H         3.512645        -1.482172        -4.053925
 H         3.675855        -2.231982        -2.371688
 H         0.154186        -0.961844        -3.782062
 H         0.029834        -1.701585        -2.122051
 H         1.016978         0.934094        -2.574111
