19
Iteration:  4430
 C         0.303500         0.318659         0.393008
 C         1.235897        -0.264033        -0.657691
 O         1.804606        -1.542224        -0.388132
 C         2.654124        -0.353725        -0.576725
 C         2.727950        -0.288179        -2.170626
 C         2.980925        -1.696312        -2.769461
 O         1.771182        -2.050379        -3.477307
 C         0.630212        -1.262513        -2.998693
 C         1.188402        -0.092115        -2.267419
 H         0.492157        -0.107708         1.318750
 H         0.429484         1.459827         0.422963
 H        -0.693627         0.185853         0.040711
 H         3.300098         0.190507         0.196256
 H         3.412070         0.465637        -2.663316
 H         3.782435        -1.912016        -3.516497
 H         3.169830        -2.359643        -1.866187
 H         0.088136        -0.924510        -3.976579
 H         0.138173        -1.975303        -2.300159
 H         0.953193         0.984106        -2.480337
