19
Iteration:  4975charge 0 multiplicity 1
 C         0.161454         0.308953         0.290489
 C         1.194688        -0.237036        -0.628863
 O         1.810699        -1.496691        -0.272300
 C         2.695114        -0.436688        -0.538559
 C         2.800619        -0.411539        -2.072221
 C         3.037176        -1.583558        -3.017752
 O         1.675411        -2.208424        -3.289504
 C         0.668931        -1.132186        -3.110928
 C         1.298849        -0.048663        -2.204509
 H         0.492891         0.639783         1.208661
 H        -0.509544         1.248539        -0.069677
 H        -0.504378        -0.476247         0.562307
 H         3.416858        -0.221316         0.135675
 H         3.607166         0.382334        -2.403022
 H         3.473678        -1.206365        -4.025825
 H         3.758061        -2.479407        -2.808324
 H         0.251494        -0.675982        -4.144205
 H        -0.245568        -1.534902        -2.692837
 H         1.136349         0.954388        -2.609724
