19
Iteration:   843
 C         0.271548         0.082769         0.370004
 C         1.223196        -0.197589        -0.708436
 O         2.310822        -1.159533        -0.307419
 C         2.664655         0.073283        -0.900162
 C         2.534281        -0.176318        -2.457933
 C         2.892976        -1.473819        -3.107808
 O         1.816472        -2.393567        -2.804161
 C         0.544248        -1.611459        -2.843097
 C         0.971705        -0.294478        -2.213305
 H        -0.240781         0.929740         0.158778
 H        -0.445956        -0.765034         0.386030
 H         0.700780         0.112878         1.282788
 H         3.652566         0.484805        -0.472564
 H         2.791889         0.655211        -3.088132
 H         2.950441        -1.343598        -4.156279
 H         3.782563        -1.890281        -2.612719
 H         0.023457        -1.489400        -3.845709
 H         0.042841        -2.311103        -2.176183
 H         0.428839         0.512598        -2.577350
