19
Iteration:  2573charge 0 multiplicity 1
 C         0.306394         0.341164         0.330209
 C         1.250959        -0.234593        -0.626914
 O         2.100832        -1.291423        -0.255993
 C         2.664477        -0.042649        -0.903343
 C         2.486233        -0.059510        -2.417284
 C         2.890271        -1.361344        -3.220777
 O         1.963959        -2.400122        -2.990234
 C         0.684447        -1.775102        -2.685722
 C         0.899705        -0.367191        -2.200818
 H         0.163600         1.359844         0.179078
 H        -0.669036        -0.320768         0.180511
 H         0.581738         0.177383         1.347781
 H         3.588273         0.338059        -0.338776
 H         2.784582         0.869285        -2.813282
 H         2.954435        -1.159008        -4.293510
 H         3.859838        -1.642091        -2.881296
 H        -0.019974        -1.841649        -3.547610
 H         0.300726        -2.333773        -1.755692
 H         0.182753         0.473747        -2.662876
