19
Iteration:   528
 C         0.222760         0.154614         0.384204
 C         1.294532        -0.135073        -0.674300
 O         2.204665        -1.157373        -0.223029
 C         2.759947         0.053628        -0.923639
 C         2.518424        -0.181131        -2.482991
 C         2.955658        -1.485965        -3.117837
 O         1.808919        -2.372658        -3.059764
 C         0.551769        -1.684579        -2.732392
 C         0.962084        -0.351291        -2.150073
 H        -0.805591         0.566786        -0.186489
 H        -0.097660        -0.738551         0.756282
 H         0.592442         0.847131         1.174884
 H         3.570666         0.425669        -0.311302
 H         2.797084         0.729683        -2.947062
 H         3.427738        -1.592983        -4.200909
 H         3.708931        -1.873058        -2.388710
 H        -0.023359        -1.497874        -3.628557
 H         0.020743        -2.364242        -2.042912
 H         0.363460         0.410580        -2.559600
