19
Iteration:  2960charge 0 multiplicity 1
 C         0.279607         0.516464         0.275989
 C         1.278241        -0.202907        -0.548932
 O         2.102848        -1.176976        -0.065541
 C         2.722717        -0.063524        -0.876788
 C         2.434856        -0.246515        -2.384277
 C         2.959085        -1.470000        -3.062694
 O         1.817972        -2.081328        -3.655887
 C         0.782016        -1.965735        -2.577794
 C         0.908037        -0.544327        -2.017561
 H         0.271484         1.589089         0.334381
 H        -0.684361         0.333280        -0.132791
 H         0.351340         0.129193         1.333131
 H         3.492422         0.378614        -0.391755
 H         2.408429         0.721366        -2.909871
 H         3.689315        -1.349042        -3.845173
 H         3.336810        -2.127086        -2.325615
 H        -0.061055        -2.195812        -3.143834
 H         0.946701        -2.842434        -1.814739
 H         0.091549         0.094648        -2.492784
