19
Iteration:  2640
 C         0.401075         0.549476         0.333180
 C         1.142600        -0.257659        -0.654106
 O         2.053429        -1.299542        -0.204882
 C         2.630756        -0.167214        -0.804509
 C         2.431561        -0.149355        -2.353159
 C         2.942396        -1.295244        -3.263886
 O         2.009470        -2.327921        -3.149042
 C         0.720208        -1.827219        -2.720466
 C         0.875739        -0.482081        -2.122932
 H        -0.128292         1.329713        -0.053560
 H        -0.283291        -0.119223         0.977868
 H         1.075036         1.036335         1.060625
 H         3.316947         0.306882        -0.230531
 H         2.513114         0.869499        -2.683501
 H         3.162055        -1.006791        -4.307137
 H         3.853314        -1.786531        -2.934202
 H         0.070546        -1.862576        -3.639449
 H         0.394172        -2.623174        -2.027019
 H         0.237981         0.309621        -2.692862
