19
Iteration:  4726charge 0 multiplicity 1
 C         0.321642         0.337687         0.392048
 C         1.163050        -0.266659        -0.648418
 O         1.670610        -1.584275        -0.441903
 C         2.630647        -0.384416        -0.654665
 C         2.794221        -0.274647        -2.186193
 C         3.028765        -1.629262        -2.918127
 O         1.774764        -2.143312        -3.231681
 C         0.751057        -1.188826        -3.048830
 C         1.186766        -0.068227        -2.184219
 H         0.957361         0.669830         1.164901
 H        -0.243913         1.268147         0.085664
 H        -0.357949        -0.345832         0.856749
 H         3.340744        -0.520678         0.038327
 H         3.370086         0.631436        -2.521418
 H         3.709735        -1.415053        -3.713108
 H         3.291301        -2.312836        -2.161090
 H         0.367516        -0.881109        -4.121468
 H        -0.101861        -1.835965        -2.568242
 H         0.960443         0.938796        -2.537396
