19
Iteration:  1473charge 0 multiplicity 1
 C         0.341824         0.426783         0.316876
 C         1.263346        -0.212173        -0.579767
 O         2.053542        -1.344724        -0.251452
 C         2.636443        -0.085074        -0.913965
 C         2.445988        -0.148924        -2.389420
 C         2.990719        -1.398059        -3.128256
 O         1.900883        -2.324392        -3.136405
 C         0.694074        -1.759873        -2.758118
 C         0.926929        -0.381242        -2.117343
 H        -0.193132         1.377695        -0.195610
 H        -0.396539        -0.245323         0.682925
 H         0.840856         0.835057         1.132074
 H         3.504491         0.351947        -0.352731
 H         2.723574         0.890678        -2.823921
 H         3.343219        -1.252220        -4.179961
 H         3.922230        -1.823968        -2.713370
 H        -0.210945        -1.717397        -3.462156
 H         0.361235        -2.516041        -1.871328
 H         0.191598         0.371639        -2.396370
