19
Iteration:  2236charge 0 multiplicity 1
 C         0.176714         0.206651         0.299718
 C         1.283271        -0.159258        -0.620293
 O         2.260021        -1.209444        -0.219818
 C         2.735357         0.044025        -0.885390
 C         2.497620        -0.216579        -2.383925
 C         2.929618        -1.455328        -3.134019
 O         1.828436        -2.374540        -3.136276
 C         0.598509        -1.745915        -2.685561
 C         0.984769        -0.287801        -2.161701
 H        -0.489411         0.871909        -0.221648
 H        -0.411886        -0.783402         0.557317
 H         0.463454         0.852065         1.092742
 H         3.491239         0.752337        -0.234766
 H         2.759182         0.655034        -3.029861
 H         3.195917        -1.389630        -4.190826
 H         3.788080        -1.898525        -2.604366
 H        -0.026818        -1.695957        -3.583495
 H        -0.008588        -2.357162        -1.941249
 H         0.311613         0.577099        -2.514415
