19
Iteration:  3880
 C         0.147312         0.269793         0.332417
 C         1.274112        -0.190040        -0.600025
 O         2.035971        -1.351946        -0.164172
 C         2.810696        -0.254955        -0.645804
 C         2.730560        -0.328358        -2.201373
 C         2.903479        -1.721114        -2.840709
 O         1.697710        -1.977406        -3.655980
 C         0.603453        -1.448896        -2.948039
 C         1.157554        -0.213626        -2.182858
 H        -0.874513         0.373536        -0.170121
 H         0.143662        -0.530152         1.082245
 H         0.315768         1.246264         0.790909
 H         3.607180         0.086375        -0.035058
 H         3.050230         0.538594        -2.765325
 H         3.769692        -1.846936        -3.469741
 H         2.914463        -2.493293        -1.970037
 H        -0.193287        -1.084605        -3.621427
 H         0.106694        -2.089927        -2.224908
 H         0.844037         0.595028        -2.697639
