19
Iteration:  1081
 C         0.266014         0.507078         0.309984
 C         1.228657        -0.281758        -0.536173
 O         2.238318        -1.108556        -0.009042
 C         2.652702         0.013942        -0.877421
 C         2.495468        -0.285237        -2.404706
 C         2.962165        -1.583487        -3.043078
 O         1.750250        -2.086017        -3.724801
 C         0.674193        -1.934410        -2.558795
 C         0.992130        -0.544974        -2.090397
 H        -0.344271         1.117415        -0.299013
 H        -0.492082        -0.193421         0.864125
 H         0.761258         1.154891         0.967701
 H         3.323279         0.819710        -0.407320
 H         2.615773         0.668425        -2.906535
 H         3.735964        -1.426183        -3.750389
 H         3.327742        -2.199702        -2.197658
 H        -0.255210        -2.154855        -3.132152
 H         0.845523        -2.751271        -1.780886
 H         0.360223         0.261691        -2.448243
