19
Iteration:  4286charge 0 multiplicity 1
 C         0.417296         0.463686         0.399754
 C         1.196389        -0.228342        -0.673306
 O         1.679209        -1.425180        -0.140320
 C         2.633970        -0.492080        -0.583833
 C         2.642453        -0.387167        -2.133339
 C         3.044863        -1.579760        -2.910256
 O         1.854187        -1.940155        -3.702454
 C         0.687349        -1.461844        -2.976723
 C         1.101574        -0.243836        -2.211042
 H         1.047913         0.359733         1.345345
 H         0.331461         1.516152         0.130128
 H        -0.555702         0.113373         0.438519
 H         3.317053        -0.143239         0.100504
 H         3.183261         0.574157        -2.409075
 H         3.855858        -1.302159        -3.607659
 H         3.432861        -2.424273        -2.180233
 H        -0.292066        -1.297141        -3.552923
 H         0.538924        -2.171431        -2.197279
 H         0.850947         0.643134        -2.761275
