19
Iteration:  2529
 C         0.147388         0.152347         0.334647
 C         1.311243        -0.227481        -0.619368
 O         2.270281        -1.200622        -0.306162
 C         2.752186         0.088993        -0.880054
 C         2.474589        -0.118193        -2.430676
 C         2.865413        -1.468635        -3.183538
 O         1.836743        -2.443244        -2.856469
 C         0.663099        -1.712552        -2.823793
 C         0.979970        -0.256875        -2.169424
 H        -0.119745         1.095192        -0.024512
 H        -0.736324        -0.631449         0.180837
 H         0.335067         0.060180         1.364921
 H         3.596363         0.614851        -0.252024
 H         2.841856         0.655983        -3.055062
 H         2.855125        -1.130544        -4.211317
 H         3.802238        -1.926256        -2.964882
 H         0.276909        -1.483814        -3.786681
 H        -0.103225        -2.171589        -2.185810
 H         0.172411         0.596062        -2.411414
