19
Iteration:  4674charge 0 multiplicity 1
 C         0.175902         0.294987         0.210353
 C         1.245649        -0.257722        -0.585920
 O         1.798803        -1.472535        -0.190257
 C         2.719883        -0.465694        -0.656877
 C         2.798864        -0.343254        -2.192562
 C         3.019268        -1.653049        -3.025209
 O         1.715687        -2.133903        -3.371011
 C         0.675043        -1.196874        -2.962210
 C         1.226782        -0.035325        -2.135599
 H         0.172677         0.142685         1.360226
 H         0.005668         1.388580         0.100320
 H        -0.850762        -0.198358        -0.080666
 H         3.273065         0.027857         0.072561
 H         3.527170         0.340783        -2.360465
 H         3.593785        -1.157486        -3.853457
 H         3.625045        -2.469351        -2.534399
 H         0.268718        -0.838785        -3.852765
 H        -0.080818        -1.745519        -2.495636
 H         0.837659         0.958920        -2.428536
