19
Iteration:  3357charge 0 multiplicity 1
 C         0.305597         0.314441         0.422820
 C         1.223096        -0.268283        -0.657696
 O         1.986296        -1.386970        -0.310814
 C         2.672954        -0.057279        -0.828696
 C         2.590438        -0.143058        -2.328096
 C         2.999003        -1.565251        -2.971017
 O         1.835006        -2.230349        -3.293732
 C         0.643832        -1.594732        -2.798677
 C         1.010522        -0.265812        -2.186079
 H         0.870405         1.267525         0.912361
 H        -0.635828         0.688342         0.119183
 H         0.231749        -0.326747         1.205618
 H         3.420919         0.203296        -0.150423
 H         2.852345         0.759778        -2.877826
 H         3.572261        -1.393726        -3.881430
 H         3.639930        -2.149821        -2.314940
 H        -0.089132        -1.587830        -3.635715
 H         0.128462        -2.316089        -2.085095
 H         0.467423         0.560294        -2.684533
