19
Iteration:   220
 C         0.272125         0.324225         0.361890
 C         1.255638        -0.217500        -0.643014
 O         2.152252        -1.200338        -0.130858
 C         2.690775        -0.075483        -0.810274
 C         2.497898        -0.145689        -2.382806
 C         2.859932        -1.461733        -3.284852
 O         1.911152        -2.482731        -2.991842
 C         0.631758        -1.641673        -2.929770
 C         1.015722        -0.374036        -2.147065
 H        -0.793709         0.499343        -0.031859
 H         0.037338        -0.348101         1.086418
 H         0.708321         1.287201         0.826626
 H         3.577304         0.553475        -0.278966
 H         2.781343         0.823749        -2.827236
 H         2.599624        -1.089147        -4.303223
 H         3.823681        -1.780446        -3.139613
 H         0.233708        -1.293262        -3.844916
 H        -0.060565        -2.263210        -2.399793
 H         0.349053         0.501080        -2.308339
