19
Iteration:  4595
 C         0.328723         0.401718         0.470046
 C         1.204445        -0.169857        -0.676926
 O         1.667012        -1.537743        -0.446387
 C         2.686545        -0.439664        -0.626196
 C         2.778703        -0.310431        -2.101977
 C         3.064842        -1.548802        -2.969371
 O         1.793345        -2.231404        -3.221641
 C         0.669354        -1.285960        -3.112272
 C         1.112939        -0.124739        -2.222315
 H         0.575783        -0.082921         1.379250
 H         0.359012         1.600528         0.735121
 H        -0.780747         0.250287         0.297305
 H         3.489143        -0.274888         0.143356
 H         3.238937         0.678885        -2.411742
 H         3.547759        -1.175099        -3.916778
 H         3.873114        -2.194398        -2.542749
 H         0.447607        -0.926039        -4.048221
 H        -0.145904        -1.861331        -2.640440
 H         0.815500         0.881735        -2.672271
