19
Iteration:  3572
 C         0.299692         0.402778         0.390247
 C         1.200625        -0.256505        -0.630652
 O         1.966649        -1.444480        -0.311125
 C         2.688316        -0.304590        -0.696428
 C         2.604378        -0.214503        -2.299945
 C         3.026994        -1.540945        -3.017647
 O         1.795335        -2.172692        -3.398452
 C         0.638819        -1.546991        -2.735498
 C         1.074059        -0.163503        -2.228336
 H        -0.324097        -0.300623         0.722766
 H         0.767037         1.021449         1.128231
 H        -0.409026         1.102589        -0.163993
 H         3.392465         0.171855        -0.044045
 H         2.881937         0.751605        -2.777554
 H         3.667368        -1.396670        -3.895730
 H         3.532321        -2.139937        -2.316176
 H        -0.226269        -1.502710        -3.411634
 H         0.466088        -2.098558        -1.767463
 H         0.610322         0.621384        -2.739341
