19
Iteration:  1006charge 0 multiplicity 1
 C         0.351964         0.518977         0.358946
 C         1.183109        -0.177486        -0.635938
 O         2.123971        -1.231945        -0.222460
 C         2.621586        -0.116543        -0.864915
 C         2.491768        -0.180341        -2.413495
 C         2.985683        -1.371889        -3.132231
 O         1.783231        -2.237535        -3.471334
 C         0.743344        -1.995692        -2.428473
 C         0.947863        -0.454933        -2.174063
 H         0.436952         1.544518         0.150090
 H        -0.803161         0.196690         0.385525
 H         0.688491         0.312795         1.335351
 H         3.313791         0.558622        -0.214913
 H         2.628586         0.789814        -2.888839
 H         3.458595        -1.042725        -4.022643
 H         3.588503        -1.957540        -2.440367
 H        -0.181196        -2.256014        -2.726080
 H         1.134715        -2.530797        -1.579741
 H         0.261153         0.101527        -2.656969
