19
Iteration:  1608
 C         0.184960         0.286966         0.401886
 C         1.244963        -0.157551        -0.631374
 O         2.237751        -1.126707        -0.203164
 C         2.703927        -0.008418        -0.927301
 C         2.532244        -0.250737        -2.353918
 C         2.966868        -1.515903        -3.033155
 O         1.795110        -2.294645        -3.373634
 C         0.611758        -1.750680        -2.685355
 C         0.964220        -0.390381        -2.173522
 H        -0.386746         1.062801         0.056833
 H        -0.491401        -0.623151         0.692179
 H         0.751163         0.499660         1.437768
 H         3.516214         0.646935        -0.410871
 H         2.716018         0.670214        -2.760938
 H         3.587839        -1.431624        -3.998062
 H         3.563407        -2.161109        -2.354069
 H        -0.268667        -1.768600        -3.444384
 H         0.346381        -2.435741        -1.803271
 H         0.584333         0.598397        -2.589511
