19
Iteration:  4606
 C         0.269163         0.401211         0.431808
 C         1.151460        -0.244050        -0.638887
 O         1.727167        -1.513053        -0.295510
 C         2.681049        -0.522075        -0.690314
 C         2.828225        -0.274326        -2.185758
 C         3.023631        -1.545467        -2.960859
 O         1.799811        -2.163465        -3.264183
 C         0.685133        -1.285551        -3.082963
 C         1.163467        -0.098997        -2.225989
 H         0.382480        -0.201248         1.298021
 H         0.621671         1.553894         0.616560
 H        -0.823156         0.344941         0.130368
 H         3.380924        -0.181636         0.085394
 H         3.332975         0.698659        -2.432899
 H         3.476625        -1.378027        -3.979412
 H         3.610063        -2.291647        -2.344631
 H         0.349658        -0.963717        -4.017493
 H        -0.164321        -1.891096        -2.698893
 H         0.713232         0.826867        -2.695971
