19
Iteration:   628charge 0 multiplicity 1
 C         0.237696         0.139445         0.375225
 C         1.211043        -0.201069        -0.695107
 O         2.236949        -1.213550        -0.328512
 C         2.669834         0.074450        -0.962133
 C         2.552816        -0.145854        -2.443170
 C         2.901912        -1.451262        -3.072411
 O         1.860531        -2.448060        -2.905337
 C         0.595366        -1.639620        -2.736852
 C         0.980566        -0.284986        -2.192969
 H         0.075236         1.293163         0.513736
 H        -0.641195        -0.297209         0.307370
 H         0.676144        -0.311349         1.223200
 H         3.424218         0.702428        -0.421225
 H         2.852732         0.606718        -3.225229
 H         3.164182        -1.322179        -4.124858
 H         3.788245        -1.882670        -2.622119
 H         0.070387        -1.595432        -3.752276
 H        -0.143071        -2.111359        -2.020558
 H         0.337440         0.478978        -2.627218
