19
Iteration:  4281charge 0 multiplicity 1
 C         0.401160         0.459065         0.405623
 C         1.197927        -0.205492        -0.705808
 O         1.677489        -1.460267        -0.164632
 C         2.622765        -0.478408        -0.614299
 C         2.649658        -0.376481        -2.154475
 C         3.019099        -1.598887        -2.890001
 O         1.848846        -1.945736        -3.675750
 C         0.693335        -1.456821        -2.956980
 C         1.153785        -0.201439        -2.175077
 H         0.959584         0.328458         1.299759
 H         0.466782         1.542398         0.149554
 H        -0.683393         0.027430         0.395233
 H         3.440506        -0.147250         0.173138
 H         3.189410         0.469170        -2.517703
 H         3.810301        -1.197965        -3.541649
 H         3.476260        -2.265949        -2.220683
 H        -0.191693        -1.415899        -3.533193
 H         0.444575        -2.382560        -2.230402
 H         0.745381         0.711379        -2.678920
