19
Iteration:   316
 C         0.316090         0.187671         0.465619
 C         1.250823        -0.100592        -0.645454
 O         2.103119        -1.204207        -0.401168
 C         2.675592         0.034317        -0.949289
 C         2.496493        -0.124819        -2.468083
 C         2.981944        -1.586736        -2.894289
 O         1.844214        -2.314257        -3.235868
 C         0.640120        -1.753436        -2.663394
 C         0.978033        -0.317089        -2.177126
 H        -0.367281         0.999030         0.137757
 H        -0.453584        -0.595109         0.603248
 H         0.807684         0.490865         1.435960
 H         3.366918         0.609121        -0.483845
 H         2.870253         0.741134        -3.049623
 H         3.663274        -1.502568        -3.760481
 H         3.476422        -2.047059        -1.982896
 H        -0.114407        -1.634512        -3.501624
 H         0.266902        -2.315079        -1.796124
 H         0.209046         0.351768        -2.663227
