19
Iteration:  4953charge 0 multiplicity 1
 C         0.126838         0.411922         0.277944
 C         1.212329        -0.269821        -0.573931
 O         1.830979        -1.550719        -0.131751
 C         2.717711        -0.475492        -0.589443
 C         2.786660        -0.337967        -2.140725
 C         2.976016        -1.617251        -3.075185
 O         1.718389        -2.116850        -3.371631
 C         0.697712        -1.165169        -3.103061
 C         1.290123        -0.142309        -2.133829
 H         0.339504         0.942530         1.128384
 H        -0.532785         1.194376        -0.365521
 H        -0.549775        -0.356730         0.578226
 H         3.342821        -0.240024         0.148635
 H         3.509269         0.376941        -2.653427
 H         3.575532        -1.357215        -3.999398
 H         3.569326        -2.480444        -2.582225
 H         0.514690        -0.575235        -4.156938
 H        -0.233346        -1.676408        -2.944534
 H         0.926799         0.866878        -2.261569
