19
Iteration:  3192
 C         0.228623         0.350730         0.461182
 C         1.271787        -0.212525        -0.646142
 O         2.060565        -1.369284        -0.338699
 C         2.689284        -0.171928        -0.863888
 C         2.535555        -0.093828        -2.376732
 C         2.901668        -1.414357        -3.156894
 O         1.922127        -2.463306        -2.931894
 C         0.668431        -1.593254        -2.891833
 C         0.971493        -0.209163        -2.212691
 H        -0.037709        -0.574490         1.209843
 H         0.704385         1.134866         1.041789
 H        -0.591052         0.600103        -0.110080
 H         3.605324         0.270010        -0.243638
 H         3.049415         0.836279        -2.769495
 H         3.049701        -1.198465        -4.282127
 H         3.848105        -1.750216        -2.753254
 H         0.436814        -1.495139        -3.922914
 H        -0.220367        -2.100705        -2.409609
 H         0.180325         0.591820        -2.408079
