19
Iteration:   462
 C         0.364596         0.506569         0.376707
 C         1.233912        -0.182023        -0.566897
 O         2.016498        -1.190016        -0.163126
 C         2.636129        -0.083673        -0.902611
 C         2.399922        -0.257764        -2.376738
 C         2.959129        -1.411272        -3.158290
 O         1.883964        -2.237727        -3.444664
 C         0.778325        -1.900116        -2.530594
 C         0.928187        -0.480977        -2.178870
 H        -0.440385         1.240405        -0.172351
 H        -0.167238        -0.242100         0.840452
 H         0.892525         0.964350         1.262117
 H         3.585845         0.369402        -0.421152
 H         2.718663         0.646962        -2.856085
 H         3.613841        -1.151638        -4.084315
 H         3.701791        -1.905639        -2.509432
 H        -0.036270        -2.127169        -3.197489
 H         0.803317        -2.552788        -1.642760
 H         0.260614         0.186172        -2.681231
