19
Iteration:  3733charge 0 multiplicity 1
 C         0.226480         0.555815         0.365191
 C         1.214059        -0.190128        -0.555808
 O         1.959829        -1.418245        -0.104231
 C         2.705577        -0.374943        -0.633565
 C         2.634734        -0.345357        -2.209118
 C         2.978476        -1.634265        -3.078490
 O         1.768784        -1.902456        -3.705793
 C         0.676964        -1.675771        -2.768971
 C         1.099492        -0.264492        -2.197063
 H         0.775779         1.063090         1.147596
 H        -0.458775         1.222618        -0.190403
 H        -0.335951        -0.182368         0.971056
 H         3.576610        -0.068425        -0.120279
 H         3.245200         0.503083        -2.558502
 H         3.662148        -1.327914        -3.923836
 H         3.417595        -2.569931        -2.627557
 H        -0.253015        -1.698509        -3.427629
 H         0.710686        -2.373711        -1.913104
 H         0.513052         0.589456        -2.701289
