19
Iteration:  2254charge 0 multiplicity 1
 C         0.257651         0.332472         0.263245
 C         1.181687        -0.279745        -0.624759
 O         2.224665        -1.189049        -0.186792
 C         2.638378        -0.046499        -0.866634
 C         2.545629        -0.105291        -2.400811
 C         2.933952        -1.429455        -3.200391
 O         1.828048        -2.366837        -3.104830
 C         0.632741        -1.726056        -2.723172
 C         1.026729        -0.456809        -2.123482
 H        -0.460181         0.929656        -0.261491
 H        -0.359856        -0.398190         0.855198
 H         0.859229         0.887157         0.997490
 H         3.377195         0.637945        -0.163452
 H         2.754758         0.836602        -2.874740
 H         3.012840        -0.972772        -4.189121
 H         3.848337        -1.937630        -2.871832
 H        -0.156464        -1.745464        -3.503539
 H         0.276960        -2.325744        -1.954998
 H         0.357354         0.384201        -2.478261
