19
Iteration:  3327charge 0 multiplicity 1
 C         0.182771         0.316958         0.393922
 C         1.236942        -0.099588        -0.620759
 O         2.048777        -1.301625        -0.200906
 C         2.743791        -0.219932        -0.810325
 C         2.614452        -0.237664        -2.298978
 C         2.984812        -1.523068        -3.153374
 O         1.809014        -2.236591        -3.278823
 C         0.635702        -1.639793        -2.799898
 C         1.053524        -0.292746        -2.166502
 H         0.435459         0.977707         1.249733
 H        -0.690552         0.788858        -0.131941
 H        -0.080608        -0.510260         1.055194
 H         3.431589         0.319047        -0.251531
 H         2.792522         0.740684        -2.664035
 H         3.330456        -1.140093        -4.114814
 H         3.771534        -2.062135        -2.674484
 H        -0.092547        -1.414336        -3.718687
 H         0.201610        -2.403413        -2.102225
 H         0.701804         0.533909        -2.728697
