19
Iteration:  1636charge 0 multiplicity 1
 C         0.285445         0.260462         0.479301
 C         1.274080        -0.152488        -0.640980
 O         2.217022        -1.069342        -0.160368
 C         2.669852         0.113514        -0.848853
 C         2.514166        -0.276217        -2.442562
 C         2.887601        -1.671396        -2.881926
 O         1.776428        -2.165726        -3.579796
 C         0.666578        -1.797674        -2.748406
 C         0.986449        -0.451640        -2.133554
 H        -0.610881         0.898895        -0.017942
 H        -0.100058        -0.640199         0.831801
 H         0.715750         0.752393         1.258761
 H         3.118126         0.821482        -0.282522
 H         2.661652         0.663900        -3.182118
 H         3.751740        -1.815664        -3.496683
 H         3.166252        -2.354330        -2.052455
 H        -0.171397        -1.836365        -3.350121
 H         0.595639        -2.562112        -1.978341
 H         0.520850         0.421802        -2.525049
