19
Iteration:   404charge 0 multiplicity 1
 C         0.269696         0.534874         0.294955
 C         1.224372        -0.229264        -0.577912
 O         2.219539        -1.135751        -0.024857
 C         2.625133         0.034446        -0.885384
 C         2.452009        -0.304769        -2.408435
 C         3.022313        -1.535508        -3.029576
 O         1.731555        -2.007923        -3.652503
 C         0.780939        -2.030551        -2.596411
 C         0.907899        -0.616422        -2.047285
 H         0.481844         1.625472         0.195692
 H        -0.823402         0.362859         0.032982
 H         0.596792         0.319636         1.362194
 H         3.305681         0.784394        -0.524430
 H         2.666738         0.636503        -2.989597
 H         3.765807        -1.448741        -3.874641
 H         3.233171        -2.295557        -2.234492
 H        -0.159362        -2.455007        -3.105352
 H         1.076211        -2.765704        -1.825395
 H         0.198102         0.181873        -2.434494
