19
Iteration:   229
 C         0.200404         0.347512         0.408815
 C         1.225742        -0.209910        -0.575533
 O         2.189436        -1.206104        -0.047550
 C         2.721941        -0.072189        -0.843273
 C         2.507863        -0.164956        -2.449015
 C         2.813703        -1.431838        -3.280233
 O         1.863061        -2.450081        -3.020738
 C         0.690905        -1.672312        -2.929957
 C         1.051366        -0.368275        -2.182905
 H        -0.771664         0.567728        -0.079595
 H         0.177843        -0.419582         1.203409
 H         0.547933         1.269770         0.951427
 H         3.514101         0.362277        -0.315487
 H         2.800909         0.718016        -3.014991
 H         2.783391        -1.158861        -4.409536
 H         3.814117        -1.856298        -3.163963
 H         0.489747        -1.371855        -3.987131
 H        -0.108187        -2.299608        -2.505441
 H         0.323099         0.414980        -2.570147
