19
Iteration:  2167
 C         0.253834         0.119414         0.423201
 C         1.213226        -0.221958        -0.680374
 O         2.330726        -1.147994        -0.348747
 C         2.632716         0.085529        -0.929761
 C         2.489735        -0.107775        -2.484672
 C         2.935968        -1.520452        -2.820338
 O         1.802242        -2.390177        -3.062285
 C         0.558229        -1.689862        -2.887895
 C         0.985343        -0.330918        -2.211748
 H         0.275390         1.137449         0.485399
 H        -0.757007        -0.366377         0.644286
 H         0.921346        -0.000230         1.280170
 H         3.359146         0.859197        -0.399579
 H         2.811812         0.696341        -3.114910
 H         3.509326        -1.529412        -3.695463
 H         3.490170        -2.078235        -2.077636
 H         0.013952        -1.568941        -3.816527
 H        -0.080691        -2.238236        -2.220441
 H         0.453005         0.562468        -2.640564
