19
Iteration:  3435charge 0 multiplicity 1
 C         0.194154         0.370407         0.371631
 C         1.222639        -0.173932        -0.612911
 O         2.129230        -1.241384        -0.130267
 C         2.711741        -0.085230        -0.690450
 C         2.620466        -0.374744        -2.221252
 C         2.952901        -1.668391        -3.059029
 O         1.702771        -2.011814        -3.622002
 C         0.654457        -1.729534        -2.783127
 C         1.110712        -0.316568        -2.135297
 H        -0.114957         1.422014        -0.015294
 H        -0.686423        -0.280997         0.339241
 H         0.441201         0.305693         1.354765
 H         3.391402         0.557351        -0.071768
 H         3.050708         0.451494        -2.764151
 H         3.647128        -1.488320        -3.878000
 H         3.316598        -2.520127        -2.447735
 H        -0.271282        -1.680413        -3.405803
 H         0.663156        -2.559205        -2.036152
 H         0.593440         0.460525        -2.708908
