19
Iteration:     4charge 0 multiplicity 1
 C         0.247166         0.405770         0.388155
 C         1.207126        -0.168369        -0.641377
 O         2.201721        -1.109590        -0.199730
 C         2.639738         0.070489        -0.930659
 C         2.461486        -0.226694        -2.434122
 C         2.974196        -1.536382        -2.986053
 O         1.805466        -2.228798        -3.472618
 C         0.741546        -1.923410        -2.572020
 C         0.936794        -0.460793        -2.141427
 H         0.831018         0.587644         1.356026
 H        -0.245389         1.252703         0.062084
 H        -0.403554        -0.511702         0.701533
 H         3.523223         0.613213        -0.385302
 H         2.710391         0.666662        -3.025662
 H         3.700742        -1.527540        -3.803578
 H         3.499981        -2.191183        -2.215306
 H        -0.240890        -2.128742        -3.089018
 H         0.707786        -2.600642        -1.730207
 H         0.253365         0.208222        -2.543881
