19
Iteration:   899charge 0 multiplicity 1
 C         0.356464         0.123528         0.517237
 C         1.251716        -0.258223        -0.668799
 O         2.356677        -1.138218        -0.313679
 C         2.697994         0.064114        -0.984057
 C         2.451834        -0.151651        -2.503156
 C         2.916757        -1.563870        -2.834256
 O         1.735041        -2.388432        -2.921768
 C         0.594612        -1.592838        -3.043832
 C         0.880790        -0.313820        -2.196145
 H        -0.552626         0.477847         0.164050
 H         0.037882        -0.870821         0.879413
 H         0.706509         0.731164         1.239922
 H         3.261236         1.059560        -0.552709
 H         2.681200         0.644481        -3.169762
 H         3.454492        -1.512637        -3.784842
 H         3.721777        -1.980817        -2.144102
 H         0.233770        -1.042191        -4.044813
 H        -0.174334        -2.426490        -2.938508
 H         0.314748         0.529671        -2.544182
