19
Iteration:  4463
 C         0.231233         0.380000         0.404881
 C         1.226484        -0.232094        -0.551059
 O         1.756966        -1.511654        -0.335214
 C         2.727179        -0.419435        -0.597526
 C         2.752713        -0.319398        -2.161602
 C         3.000281        -1.669043        -2.965634
 O         1.755645        -2.125126        -3.410698
 C         0.693101        -1.241591        -3.076272
 C         1.203450        -0.116621        -2.203343
 H         0.367277         0.153864         1.409750
 H         0.240065         1.517616         0.378342
 H        -0.755744         0.010191         0.250909
 H         3.442755        -0.034165         0.215956
 H         3.397095         0.498970        -2.610108
 H         3.760272        -1.519930        -3.734369
 H         3.477791        -2.293636        -2.178385
 H         0.137524        -0.908936        -4.065028
 H        -0.147409        -1.851813        -2.607699
 H         0.803536         0.897071        -2.554324
