19
Iteration:  1498
 C         0.375715         0.528877         0.424176
 C         1.160469        -0.213477        -0.630926
 O         2.056006        -1.337811        -0.334096
 C         2.624071        -0.222967        -0.847513
 C         2.442195        -0.101188        -2.399664
 C         2.977655        -1.286929        -3.238964
 O         1.995686        -2.436671        -2.952798
 C         0.684793        -1.802913        -2.808916
 C         0.922489        -0.382329        -2.170124
 H         0.096265         1.544535         0.140137
 H        -0.583577        -0.033313         0.747528
 H         1.044784         0.704494         1.316451
 H         3.228565         0.334177        -0.242872
 H         2.732123         0.811901        -2.697198
 H         2.927910        -1.103234        -4.317056
 H         4.023394        -1.541878        -3.198874
 H         0.074980        -1.719878        -3.759804
 H         0.068955        -2.406797        -2.105564
 H         0.263063         0.429438        -2.451114
