19
Iteration:  1726
 C         0.288168         0.378260         0.348975
 C         1.185189        -0.189483        -0.637652
 O         2.176454        -1.195450        -0.135353
 C         2.631231        -0.018666        -0.855309
 C         2.530826        -0.229464        -2.359434
 C         2.986132        -1.453259        -3.131343
 O         1.782712        -2.277611        -3.454338
 C         0.680555        -1.832972        -2.595264
 C         0.974904        -0.429323        -2.132416
 H        -0.043239         1.432932        -0.038218
 H        -0.660178        -0.208631         0.509340
 H         0.775073         0.372412         1.405334
 H         3.435952         0.530492        -0.224450
 H         2.873419         0.748468        -2.892323
 H         3.442496        -1.084211        -4.052303
 H         3.805562        -2.021912        -2.619307
 H        -0.302192        -1.799558        -3.108113
 H         0.611449        -2.503403        -1.752345
 H         0.338939         0.271423        -2.677462
