19
Iteration:  2159
 C         0.312942         0.176922         0.453889
 C         1.202884        -0.239866        -0.665442
 O         2.298594        -1.171743        -0.313649
 C         2.650372         0.111474        -0.951302
 C         2.439376        -0.151421        -2.492335
 C         2.966022        -1.551173        -2.869471
 O         1.847546        -2.399910        -3.056849
 C         0.588743        -1.628385        -2.914323
 C         0.941394        -0.336878        -2.169287
 H        -0.000605         1.246247         0.364059
 H        -0.771841        -0.373995         0.320764
 H         0.757021        -0.113450         1.364312
 H         3.447173         0.808315        -0.352922
 H         2.664792         0.605045        -3.266789
 H         3.487208        -1.480706        -3.866924
 H         3.541217        -2.011104        -2.034305
 H        -0.026739        -1.452810        -3.856840
 H        -0.042351        -2.429582        -2.294949
 H         0.342032         0.651120        -2.376285
