19
Iteration:  4936charge 0 multiplicity 1
 C         0.237493         0.374986         0.192064
 C         1.220088        -0.288184        -0.598492
 O         1.790928        -1.530277        -0.143769
 C         2.719270        -0.458556        -0.578818
 C         2.783093        -0.362062        -2.103228
 C         3.065681        -1.569556        -2.971918
 O         1.676507        -2.129019        -3.410825
 C         0.664792        -1.117672        -3.159449
 C         1.169384        -0.221716        -2.121795
 H         0.874572         0.912414         1.049687
 H        -0.179068         1.095504        -0.413450
 H        -0.546317        -0.306205         0.659916
 H         3.621219        -0.102909         0.186151
 H         3.164079         0.605408        -2.328314
 H         3.566273        -1.287930        -3.900959
 H         3.514299        -2.302206        -2.362437
 H         0.422733        -0.640553        -4.037229
 H        -0.224690        -1.728162        -2.798005
 H         0.924937         0.874129        -2.310234
