19
Iteration:  2495
 C         0.313123         0.067647         0.482738
 C         1.185023        -0.257930        -0.680738
 O         2.264439        -1.150991        -0.251862
 C         2.623128         0.098264        -1.017930
 C         2.495583        -0.148466        -2.457432
 C         2.999223        -1.498126        -2.980571
 O         1.761069        -2.388503        -2.908137
 C         0.627814        -1.619130        -2.913244
 C         0.978555        -0.302793        -2.290610
 H        -0.442447         0.850515         0.431864
 H        -0.339809        -0.915900         0.666656
 H         0.908754         0.507116         1.212051
 H         3.435717         0.790346        -0.387230
 H         2.968014         0.582415        -3.081667
 H         3.280708        -1.338079        -4.014259
 H         3.758723        -2.074539        -2.462374
 H         0.242810        -1.521394        -3.895625
 H        -0.218409        -2.105701        -2.277650
 H         0.280234         0.654853        -2.559698
