19
Iteration:  2217
 C         0.130410         0.117238         0.404353
 C         1.257837        -0.134241        -0.652789
 O         2.248683        -1.099547        -0.301697
 C         2.765743         0.026274        -0.936164
 C         2.540463        -0.146771        -2.472373
 C         2.951861        -1.507158        -2.999047
 O         1.792251        -2.385458        -3.098547
 C         0.611298        -1.676290        -2.715143
 C         0.993429        -0.341441        -2.176086
 H        -0.668137         0.950649         0.095467
 H        -0.286306        -0.835576         0.328170
 H         0.378465         0.373108         1.497717
 H         3.586640         0.394186        -0.604810
 H         2.823222         0.775659        -3.033463
 H         3.513460        -1.525129        -4.046288
 H         3.616110        -2.177676        -2.410669
 H        -0.136190        -1.396723        -3.556859
 H         0.058702        -2.376005        -1.913876
 H         0.402776         0.404336        -2.610235
