19
Iteration:   517charge 0 multiplicity 1
 C         0.237178         0.200180         0.292542
 C         1.263172        -0.200738        -0.628183
 O         2.181063        -1.161911        -0.251991
 C         2.740753        -0.009568        -0.921536
 C         2.498668        -0.157419        -2.450210
 C         2.989288        -1.506920        -3.077062
 O         1.844911        -2.353282        -3.132574
 C         0.552050        -1.702868        -2.632880
 C         0.970464        -0.314550        -2.142890
 H        -0.796887         0.689896        -0.205299
 H         0.054325        -0.641975         0.856155
 H         0.552506         0.951590         1.066483
 H         3.557940         0.479098        -0.370632
 H         2.790489         0.596468        -3.122848
 H         3.226875        -1.124020        -4.186114
 H         3.895221        -2.022720        -2.653859
 H        -0.109515        -1.703498        -3.491025
 H         0.029964        -2.282300        -1.854124
 H         0.318931         0.474922        -2.387901
