19
Iteration:  2686charge 0 multiplicity 1
 C         0.254711         0.315448         0.265877
 C         1.218843        -0.178996        -0.676226
 O         2.115593        -1.246240        -0.164339
 C         2.693059        -0.128598        -0.832236
 C         2.513333        -0.179216        -2.396671
 C         2.969176        -1.340022        -3.303808
 O         1.894550        -2.357285        -3.061215
 C         0.663125        -1.765422        -2.661908
 C         0.961981        -0.357890        -2.117473
 H        -0.091803         1.319640         0.007459
 H        -0.601915        -0.384156         0.337201
 H         0.667833         0.615342         1.323983
 H         3.394628         0.448070        -0.178890
 H         2.910999         0.801349        -2.847963
 H         2.815433        -1.095234        -4.347749
 H         3.989880        -1.820042        -3.261819
 H        -0.006675        -1.698231        -3.564019
 H         0.241946        -2.445265        -1.971688
 H         0.180847         0.396665        -2.436612
