19
Iteration:  2263charge 0 multiplicity 1
 C         0.257481         0.406808         0.354454
 C         1.208431        -0.283607        -0.615651
 O         2.188449        -1.246670        -0.162142
 C         2.632372        -0.036151        -0.861353
 C         2.559553        -0.132594        -2.392628
 C         2.944795        -1.358552        -3.231519
 O         1.883112        -2.358883        -3.106937
 C         0.600311        -1.836153        -2.771476
 C         1.002956        -0.413390        -2.149985
 H        -0.374203         1.194223        -0.188827
 H        -0.327394        -0.289021         0.873713
 H         0.851150         1.118661         1.009619
 H         3.209284         0.575538        -0.278722
 H         2.740564         0.803019        -2.917784
 H         2.988165        -1.214149        -4.376934
 H         3.894886        -1.885612        -3.013838
 H        -0.116164        -1.860123        -3.686245
 H         0.123120        -2.429251        -1.906708
 H         0.351092         0.382767        -2.410369
