19
Iteration:  2351charge 0 multiplicity 1
 C         0.363664         0.449433         0.355136
 C         1.236705        -0.201996        -0.648488
 O         1.994057        -1.400757        -0.409371
 C         2.672561        -0.115551        -0.836699
 C         2.454565        -0.079153        -2.461495
 C         2.880078        -1.289956        -3.283858
 O         2.042220        -2.335207        -2.899835
 C         0.730803        -1.837392        -2.575959
 C         0.900585        -0.421502        -2.186139
 H         0.437455         1.593587         0.214881
 H        -0.717848         0.177758         0.131601
 H         0.702301         0.299240         1.410843
 H         3.419507         0.255702        -0.229096
 H         2.586771         0.950388        -2.804182
 H         2.754780        -0.963043        -4.360801
 H         3.922798        -1.607332        -3.142034
 H         0.011822        -1.952513        -3.467212
 H         0.223074        -2.455537        -1.772332
 H         0.165931         0.290811        -2.606126
