19
Iteration:  2841charge 0 multiplicity 1
 C         0.222874         0.158557         0.334289
 C         1.222060        -0.242923        -0.655630
 O         2.233861        -1.102903        -0.231976
 C         2.722955         0.032999        -0.870728
 C         2.571159        -0.167126        -2.384223
 C         2.959045        -1.515130        -3.076315
 O         1.774575        -2.354121        -3.134226
 C         0.542134        -1.678775        -2.759455
 C         1.025312        -0.355677        -2.138697
 H        -0.708414         0.495369        -0.078619
 H        -0.141755        -0.686184         0.870884
 H         0.761119         0.785511         1.071480
 H         3.443297         0.684655        -0.412422
 H         2.838940         0.684123        -3.070408
 H         3.257418        -1.203721        -4.132350
 H         3.783702        -2.184517        -2.614482
 H        -0.074840        -1.423399        -3.723110
 H        -0.030205        -2.300791        -2.126331
 H         0.502561         0.550963        -2.538010
