19
Iteration:  2976charge 0 multiplicity 1
 C         0.132034         0.547533         0.299820
 C         1.238513        -0.162982        -0.589186
 O         2.309624        -1.191831        -0.054716
 C         2.662346        -0.117706        -0.785447
 C         2.434153        -0.262399        -2.330863
 C         2.927314        -1.514245        -3.045869
 O         1.739091        -2.041225        -3.692323
 C         0.805160        -2.005445        -2.621433
 C         0.961408        -0.528063        -2.090302
 H         0.358086         1.644632         0.217000
 H        -0.871072         0.217237        -0.091934
 H         0.160845         0.342645         1.355952
 H         3.533557         0.654185        -0.522446
 H         2.822490         0.640789        -2.802121
 H         3.700229        -1.277648        -3.840859
 H         3.340075        -2.349642        -2.311147
 H        -0.294969        -2.296060        -2.860060
 H         1.126119        -2.635900        -1.863398
 H         0.363656         0.186331        -2.606414
