19
Iteration:     3charge 0 multiplicity 1
 C         0.252810         0.400086         0.383797
 C         1.209674        -0.168223        -0.640138
 O         2.204349        -1.109579        -0.202133
 C         2.639788         0.067989        -0.923823
 C         2.462295        -0.223107        -2.428435
 C         2.972139        -1.538519        -2.990446
 O         1.805315        -2.229198        -3.467492
 C         0.736155        -1.925088        -2.573450
 C         0.938309        -0.463965        -2.140018
 H         0.823731         0.603101         1.345357
 H        -0.227764         1.245022         0.047969
 H        -0.442549        -0.468054         0.678822
 H         3.483162         0.646213        -0.386649
 H         2.694898         0.661017        -3.031557
 H         3.676844        -1.495309        -3.818216
 H         3.499636        -2.175171        -2.217959
 H        -0.232339        -2.114574        -3.106810
 H         0.712010        -2.596863        -1.730422
 H         0.272569         0.205738        -2.556526
