19
Iteration:  2894charge 0 multiplicity 1
 C         0.347501         0.380351         0.409282
 C         1.200544        -0.144468        -0.633100
 O         2.008408        -1.263662        -0.282004
 C         2.726325        -0.057529        -0.930776
 C         2.500649        -0.113127        -2.453907
 C         2.996625        -1.421661        -3.074062
 O         1.882629        -2.270181        -3.253478
 C         0.665140        -1.852849        -2.625212
 C         0.923156        -0.454138        -2.128622
 H        -0.219501         1.261984         0.199073
 H        -0.465640        -0.369688         0.375572
 H         0.921912         0.382870         1.420804
 H         3.520795         0.406057        -0.340454
 H         2.803320         0.835636        -2.981453
 H         3.602072        -1.308265        -3.980243
 H         3.617212        -1.868608        -2.277912
 H        -0.105553        -1.693886        -3.298894
 H         0.367274        -2.639603        -1.845508
 H         0.328575         0.367831        -2.700061
