19
Iteration:   886charge 0 multiplicity 1
 C         0.370396         0.064727         0.451317
 C         1.274577        -0.237741        -0.654970
 O         2.330595        -1.149906        -0.330816
 C         2.624367         0.144619        -1.007359
 C         2.414486        -0.172979        -2.444165
 C         2.980328        -1.526803        -2.900013
 O         1.745674        -2.413718        -2.848992
 C         0.557377        -1.534339        -3.057082
 C         0.891066        -0.358767        -2.205894
 H        -0.454025         0.605074         0.157713
 H         0.092707        -0.848101         1.054110
 H         0.948387         0.610969         1.133785
 H         3.445314         0.770359        -0.435599
 H         2.691519         0.641153        -3.105815
 H         3.449686        -1.599299        -3.906972
 H         3.608029        -2.026971        -2.104827
 H         0.673871        -1.335047        -4.162245
 H        -0.460419        -1.974418        -2.759486
 H         0.382485         0.501233        -2.396281
