19
Iteration:  2955charge 0 multiplicity 1
 C         0.289949         0.506711         0.305380
 C         1.301186        -0.219785        -0.585381
 O         2.062939        -1.183491        -0.076855
 C         2.695946        -0.038895        -0.838644
 C         2.433205        -0.236553        -2.428173
 C         2.992396        -1.451261        -3.067187
 O         1.810663        -2.100299        -3.621983
 C         0.784625        -1.960725        -2.590946
 C         0.903347        -0.550304        -2.007158
 H         0.477281         1.623647         0.369109
 H        -0.770711         0.280889        -0.076294
 H         0.351260         0.183805         1.372469
 H         3.647591         0.494004        -0.329499
 H         2.431539         0.683934        -3.021930
 H         3.690784        -1.318334        -3.929992
 H         3.450609        -2.199577        -2.313466
 H        -0.226946        -2.194663        -3.120277
 H         0.916106        -2.773852        -1.924023
 H         0.194520         0.049863        -2.534778
