19
Iteration:  2695charge 0 multiplicity 1
 C         0.238260         0.298466         0.308538
 C         1.287373        -0.193225        -0.660924
 O         2.093176        -1.250951        -0.171745
 C         2.690562        -0.049571        -0.852579
 C         2.581284        -0.200842        -2.404115
 C         2.905380        -1.333015        -3.288323
 O         1.911341        -2.361318        -3.016693
 C         0.614355        -1.755373        -2.676694
 C         0.951464        -0.368538        -2.195986
 H        -0.076083         1.195164         0.002815
 H        -0.625105        -0.403393         0.399449
 H         0.682901         0.149094         1.305819
 H         3.396673         0.561215        -0.377681
 H         3.010289         0.731106        -2.749148
 H         2.949703        -0.867798        -4.334803
 H         3.859614        -1.808969        -3.038976
 H        -0.120144        -1.761731        -3.587794
 H         0.187566        -2.417243        -1.854252
 H         0.391228         0.511030        -2.727030
