19
Iteration:  2084charge 0 multiplicity 1
 C         0.277005         0.414345         0.320885
 C         1.241725        -0.216725        -0.591913
 O         2.055879        -1.287397        -0.247989
 C         2.717634        -0.157184        -0.841157
 C         2.485475        -0.168544        -2.425163
 C         2.866402        -1.314380        -3.309162
 O         1.972556        -2.369509        -2.957201
 C         0.676196        -1.740684        -2.711326
 C         0.971677        -0.388204        -2.201217
 H        -0.626638         1.033027        -0.107252
 H        -0.262201        -0.427433         0.843565
 H         0.898350         0.728795         1.111902
 H         3.511154         0.324657        -0.118477
 H         2.762032         0.856839        -2.814170
 H         2.826508        -1.000523        -4.430249
 H         3.895638        -1.730767        -3.182151
 H         0.186101        -1.690704        -3.677396
 H         0.128565        -2.322682        -1.862644
 H         0.345496         0.459745        -2.590262
