19
Iteration:  4728charge 0 multiplicity 1
 C         0.311203         0.353989         0.391363
 C         1.165597        -0.289124        -0.655414
 O         1.657875        -1.583605        -0.431291
 C         2.644569        -0.389625        -0.665685
 C         2.777377        -0.257396        -2.212530
 C         3.044213        -1.631005        -2.913790
 O         1.772703        -2.133651        -3.225601
 C         0.737285        -1.183477        -3.055048
 C         1.204353        -0.075847        -2.168551
 H         1.071808         0.682988         1.201276
 H        -0.230730         1.248536         0.088301
 H        -0.391811        -0.412647         0.890364
 H         3.322237        -0.533412         0.125643
 H         3.285593         0.595245        -2.487074
 H         3.725434        -1.429614        -3.706243
 H         3.370596        -2.345947        -2.155674
 H         0.409837        -0.886243        -4.106654
 H        -0.083918        -1.794620        -2.605320
 H         0.948575         0.886225        -2.614244
