19
Iteration:  3324charge 0 multiplicity 1
 C         0.170593         0.324479         0.377542
 C         1.225830        -0.110106        -0.617676
 O         2.049219        -1.308602        -0.205236
 C         2.749472        -0.184189        -0.793127
 C         2.633965        -0.267121        -2.287916
 C         2.984057        -1.523224        -3.169521
 O         1.812093        -2.213964        -3.264549
 C         0.623883        -1.633173        -2.793687
 C         1.047324        -0.326174        -2.170469
 H         0.539672         1.025843         1.262742
 H        -0.690332         0.741749        -0.062710
 H        -0.139347        -0.515813         0.879451
 H         3.552844         0.322378        -0.280426
 H         2.830493         0.732310        -2.700323
 H         3.257230        -1.108108        -4.123121
 H         3.774082        -2.103506        -2.752161
 H        -0.073431        -1.330312        -3.655324
 H         0.247444        -2.463950        -2.114098
 H         0.647731         0.563077        -2.706004
