19
Iteration:  2722charge 0 multiplicity 1
 C         0.203813         0.179877         0.425156
 C         1.217558        -0.121179        -0.679827
 O         2.162810        -1.220251        -0.369158
 C         2.669254        -0.026564        -0.849475
 C         2.530977        -0.136221        -2.490719
 C         2.968983        -1.457468        -3.178018
 O         1.862480        -2.448509        -2.932344
 C         0.681236        -1.685290        -2.725485
 C         0.949363        -0.275695        -2.166687
 H        -0.038226         1.370152         0.315887
 H        -0.786304        -0.300843         0.370530
 H         0.748735        -0.182284         1.353419
 H         3.480827         0.522405        -0.247851
 H         3.029875         0.793935        -2.937579
 H         3.038236        -1.149003        -4.202261
 H         3.931129        -1.922111        -2.826512
 H         0.129291        -1.514701        -3.617940
 H         0.048314        -2.229778        -2.075324
 H         0.310949         0.449416        -2.550792
