19
Iteration:  1648
 C         0.307787         0.256801         0.413864
 C         1.174885        -0.213908        -0.633696
 O         2.300961        -1.065406        -0.131651
 C         2.645308         0.106808        -0.922455
 C         2.509166        -0.293227        -2.320086
 C         2.923409        -1.690644        -2.815872
 O         1.769151        -2.082249        -3.643238
 C         0.631239        -1.833740        -2.733069
 C         0.970745        -0.427129        -2.177352
 H        -0.595386         0.900871         0.106344
 H        -0.089752        -0.533007         0.996976
 H         0.889088         0.823754         1.059067
 H         3.357407         0.785923        -0.592026
 H         2.906485         0.557159        -3.052269
 H         3.786829        -1.748325        -3.384776
 H         2.850780        -2.247614        -1.882334
 H        -0.264930        -1.900759        -3.244432
 H         0.639706        -2.563522        -1.909397
 H         0.399962         0.312958        -2.678015
