19
Iteration:    94charge 0 multiplicity 1
 C         0.166839         0.379883         0.286209
 C         1.274313        -0.142313        -0.574112
 O         2.352325        -1.137914        -0.125310
 C         2.762102         0.013807        -0.847512
 C         2.463582        -0.188918        -2.389075
 C         2.958433        -1.465219        -3.025363
 O         1.824326        -2.349816        -3.391982
 C         0.512601        -1.834650        -2.763088
 C         0.938889        -0.539255        -2.041528
 H         0.516172         1.405678         0.389983
 H        -0.903355         0.179473        -0.284189
 H        -0.039006         0.138218         1.361062
 H         3.625098         0.543395        -0.417415
 H         2.617963         0.737274        -2.992092
 H         3.573482        -1.223002        -3.967132
 H         3.903362        -1.871864        -2.427715
 H        -0.182970        -1.493690        -3.577429
 H        -0.107806        -2.650787        -2.313818
 H         0.208256         0.227104        -2.465307
