19
Iteration:  4658charge 0 multiplicity 1
 C         0.080073         0.382703         0.209659
 C         1.241226        -0.214066        -0.600998
 O         1.903386        -1.559838        -0.171957
 C         2.746021        -0.417586        -0.536185
 C         2.773870        -0.377442        -2.128420
 C         3.010982        -1.566078        -3.040720
 O         1.701259        -2.127484        -3.376823
 C         0.617179        -1.211824        -3.061002
 C         1.285491        -0.145166        -2.141669
 H         0.074156         0.003645         1.196343
 H         0.193367         1.516203         0.176852
 H        -0.773761         0.092585        -0.338573
 H         3.695104        -0.313663         0.113553
 H         3.225211         0.651317        -2.530515
 H         3.393007        -1.375030        -4.058147
 H         3.492753        -2.297852        -2.403823
 H         0.074627        -0.843286        -4.047161
 H        -0.144812        -1.837917        -2.417355
 H         0.981117         0.856588        -2.542420
