19
Iteration:  4162
 C         0.216303         0.262449         0.333015
 C         1.240070        -0.303259        -0.636405
 O         1.934346        -1.453265        -0.180461
 C         2.711701        -0.303497        -0.657661
 C         2.761175        -0.348959        -2.149694
 C         2.888283        -1.695045        -2.793340
 O         1.747647        -2.023794        -3.534258
 C         0.626823        -1.187441        -3.140485
 C         1.188463        -0.183263        -2.180021
 H         0.796868         0.545161         1.168120
 H        -0.179682         1.202488        -0.072186
 H        -0.526772        -0.533391         0.705478
 H         3.673303        -0.147552        -0.034247
 H         3.211174         0.508103        -2.637691
 H         3.752271        -1.885866        -3.494673
 H         2.981498        -2.431998        -1.900675
 H         0.026672        -0.741565        -3.920399
 H        -0.132465        -1.741697        -2.626367
 H         0.834176         0.838402        -2.295227
