19
Iteration:    50charge 0 multiplicity 1
 C         0.285827         0.331809         0.423152
 C         1.150656        -0.146059        -0.734539
 O         2.223270        -1.097318        -0.199907
 C         2.586885         0.167391        -0.865593
 C         2.569309        -0.219850        -2.345482
 C         2.990622        -1.627609        -2.935680
 O         1.749534        -2.194744        -3.549242
 C         0.684432        -1.929034        -2.599403
 C         0.956954        -0.480282        -2.166952
 H         0.840593         1.192730         0.856513
 H        -0.792518         0.733304         0.249354
 H         0.461598        -0.403880         1.282995
 H         3.424054         0.696240        -0.338329
 H         2.767130         0.604723        -3.068698
 H         3.803552        -1.551499        -3.722556
 H         3.547363        -2.352869        -2.229556
 H        -0.298227        -2.124617        -3.072826
 H         0.594626        -2.668532        -1.773935
 H         0.336092         0.273254        -2.745451
