19
Iteration:  4138
 C         0.307166         0.323482         0.398710
 C         1.243046        -0.270084        -0.621659
 O         1.918708        -1.525107        -0.219543
 C         2.654273        -0.331000        -0.577921
 C         2.718246        -0.345419        -2.203521
 C         2.906522        -1.723976        -2.738617
 O         1.834574        -2.002894        -3.630993
 C         0.578324        -1.251030        -3.125241
 C         1.147145        -0.106956        -2.211622
 H         0.896028         0.809900         1.104909
 H        -0.288223         1.174457        -0.079600
 H        -0.263522        -0.481727         0.986295
 H         3.195479         0.117143         0.201317
 H         3.264813         0.381400        -2.721930
 H         3.776065        -1.926183        -3.419086
 H         2.982390        -2.429475        -1.861476
 H        -0.043069        -0.844303        -3.851225
 H        -0.096823        -1.969528        -2.611668
 H         0.812907         0.945174        -2.424022
