19
Iteration:  3651
 C         0.263950         0.199368         0.330694
 C         1.248990        -0.241601        -0.619826
 O         2.082268        -1.331478        -0.189422
 C         2.760480        -0.088791        -0.684051
 C         2.700989        -0.286892        -2.329763
 C         2.927669        -1.634171        -2.829040
 O         1.702114        -2.056843        -3.522793
 C         0.555396        -1.512690        -2.983638
 C         1.092293        -0.307824        -2.110572
 H         0.211754        -0.242674         1.315181
 H         0.611829         1.194490         0.602162
 H        -0.730130         0.394163        -0.140370
 H         3.565091         0.434223         0.068027
 H         3.072129         0.560883        -2.949645
 H         3.738882        -1.820125        -3.517392
 H         3.034479        -2.223799        -1.968890
 H        -0.182906        -1.258592        -3.727521
 H        -0.158252        -2.119971        -2.246102
 H         0.638574         0.638426        -2.563951
