19
Iteration:   473charge 0 multiplicity 1
 C         0.296961         0.443984         0.389116
 C         1.210049        -0.146128        -0.646823
 O         2.043759        -1.263810        -0.232893
 C         2.683346        -0.055967        -0.913853
 C         2.487763        -0.208767        -2.390666
 C         3.012654        -1.414109        -3.138365
 O         1.843841        -2.290004        -3.373072
 C         0.756801        -1.897355        -2.562927
 C         0.931694        -0.414158        -2.074861
 H        -0.489544         1.133862        -0.229679
 H        -0.236551        -0.233362         0.939027
 H         0.858622         1.203545         0.997904
 H         3.432771         0.507947        -0.290884
 H         2.615351         0.744050        -2.869586
 H         3.317939        -1.131654        -4.206169
 H         3.799805        -1.937189        -2.568535
 H        -0.199036        -2.049526        -3.027936
 H         0.765698        -2.517112        -1.651620
 H         0.329620         0.317299        -2.570796
