19
Iteration:  1850charge 0 multiplicity 1
 C         0.256047         0.225331         0.338015
 C         1.276814        -0.262501        -0.602594
 O         2.252649        -1.165629        -0.182166
 C         2.757692         0.010573        -0.889992
 C         2.443033        -0.161831        -2.432276
 C         2.848507        -1.471088        -3.114413
 O         1.821465        -2.445957        -2.976172
 C         0.623411        -1.600976        -2.980260
 C         0.960906        -0.382130        -2.110462
 H        -0.501794         0.847681        -0.100129
 H        -0.267525        -0.682516         0.917732
 H         0.858220         0.834314         1.174117
 H         3.439855         0.709621        -0.468008
 H         2.596341         0.741901        -2.911434
 H         3.176909        -1.193772        -4.104209
 H         3.755645        -1.804586        -2.640039
 H         0.414315        -1.333114        -4.042855
 H        -0.137123        -2.281854        -2.553921
 H         0.435675         0.522877        -2.449689
