19
Iteration:  3121charge 0 multiplicity 1
 C         0.165948         0.276037         0.448081
 C         1.262349        -0.153714        -0.618788
 O         2.185038        -1.199352        -0.254993
 C         2.680548        -0.025905        -0.851737
 C         2.617217        -0.237268        -2.382838
 C         3.019049        -1.535624        -3.115216
 O         1.794200        -2.315287        -3.227579
 C         0.585953        -1.663431        -2.800508
 C         0.958056        -0.346431        -2.108848
 H        -0.694338        -0.223553         0.156162
 H         0.539873        -0.197137         1.367804
 H        -0.090536         1.413238         0.417429
 H         3.363241         0.535085        -0.341143
 H         3.118700         0.579542        -2.881911
 H         3.457556        -1.221756        -4.026169
 H         3.793125        -2.104624        -2.470484
 H        -0.146642        -1.438342        -3.701829
 H         0.079051        -2.367305        -2.182157
 H         0.394263         0.367412        -2.684606
