19
Iteration:  1210
 C         0.326960         0.341276         0.408620
 C         1.212354        -0.312533        -0.623737
 O         2.254498        -1.189414        -0.221849
 C         2.639459        -0.033113        -0.877858
 C         2.449048        -0.105963        -2.385968
 C         2.893345        -1.497685        -3.139897
 O         1.851951        -2.377537        -2.957364
 C         0.638881        -1.697091        -2.943479
 C         0.942374        -0.399053        -2.176423
 H         0.346631         1.514769         0.302066
 H        -0.704513         0.047492         0.341829
 H         0.598499        -0.146437         1.396344
 H         3.279040         0.721090        -0.325977
 H         2.817316         0.736872        -2.935778
 H         2.992242        -1.207047        -4.223334
 H         3.862431        -1.989586        -2.800815
 H         0.411120        -1.427243        -4.027182
 H        -0.045803        -2.399074        -2.593987
 H         0.462791         0.534517        -2.614652
