19
Iteration:  3113charge 0 multiplicity 1
 C         0.200824         0.242800         0.474312
 C         1.229717        -0.172084        -0.596895
 O         2.121400        -1.194532        -0.292337
 C         2.729087        -0.007528        -0.891521
 C         2.582644        -0.206832        -2.421934
 C         3.093145        -1.527807        -3.044945
 O         1.779491        -2.324762        -3.261540
 C         0.598611        -1.680408        -2.774492
 C         0.949830        -0.356469        -2.090764
 H        -0.750035         0.008309        -0.089820
 H         0.443272        -0.078391         1.523151
 H         0.143072         1.425720         0.562680
 H         3.382975         0.562712        -0.278354
 H         2.885047         0.720993        -3.010489
 H         3.506331        -1.378949        -4.076961
 H         3.743276        -2.290740        -2.446581
 H         0.094890        -1.449112        -3.617545
 H         0.041817        -2.406921        -2.181385
 H         0.438370         0.564894        -2.596110
