19
Iteration:   862charge 0 multiplicity 1
 C         0.287967         0.073283         0.480158
 C         1.235016        -0.267403        -0.692692
 O         2.343576        -1.158504        -0.346041
 C         2.667072         0.096696        -0.948867
 C         2.517270        -0.099880        -2.452310
 C         2.908656        -1.543827        -2.998561
 O         1.745084        -2.411684        -2.817867
 C         0.591328        -1.603270        -2.903943
 C         0.970434        -0.274502        -2.295273
 H        -0.484774         0.868864         0.207098
 H        -0.266227        -0.791529         0.871311
 H         0.914663         0.370875         1.421487
 H         2.957070         0.940757        -0.406759
 H         2.896545         0.740062        -3.123594
 H         3.085545        -1.496502        -4.139038
 H         3.745562        -2.140664        -2.598561
 H         0.496831        -1.491195        -4.012014
 H        -0.318477        -2.178907        -2.527739
 H         0.377829         0.599007        -2.549768
