19
Iteration:  4007
 C         0.365965         0.543916         0.458941
 C         1.162814        -0.236221        -0.591188
 O         1.709631        -1.457551        -0.143563
 C         2.666473        -0.449748        -0.647851
 C         2.681551        -0.361503        -2.189334
 C         3.062328        -1.578607        -3.021225
 O         1.842220        -1.920750        -3.731999
 C         0.724489        -1.580004        -2.885917
 C         1.034765        -0.275569        -2.151162
 H         0.245874        -0.058903         1.312949
 H         1.054646         1.392535         0.709351
 H        -0.467593         1.213058         0.075031
 H         3.408456        -0.102338         0.030562
 H         3.313458         0.482704        -2.353407
 H         3.769357        -1.326105        -3.883319
 H         3.473146        -2.500683        -2.461217
 H        -0.106091        -1.281335        -3.531717
 H         0.419944        -2.335298        -2.198149
 H         0.610325         0.690480        -2.600580
