19
Iteration:  2130charge 0 multiplicity 1
 C         0.217323         0.285938         0.438559
 C         1.212729        -0.211703        -0.631537
 O         2.283175        -1.171103        -0.218135
 C         2.709173         0.009312        -0.895076
 C         2.473490        -0.147451        -2.418242
 C         2.909643        -1.470044        -3.091631
 O         1.843121        -2.433994        -3.038865
 C         0.613591        -1.701256        -2.956812
 C         0.964362        -0.403237        -2.111875
 H        -0.197753         1.335595         0.074359
 H        -0.660219        -0.248530         0.499308
 H         0.742094         0.250988         1.439517
 H         3.450018         0.564706        -0.481103
 H         2.676349         0.719402        -3.106944
 H         3.223146        -1.208792        -4.151009
 H         3.831743        -1.862988        -2.604435
 H         0.275346        -1.311803        -3.909520
 H         0.007781        -2.474740        -2.520559
 H         0.381355         0.443876        -2.345848
