19
Iteration:  1590charge 0 multiplicity 1
 C         0.263034         0.288152         0.294758
 C         1.258804        -0.224356        -0.649901
 O         2.188021        -1.257592        -0.207600
 C         2.665610        -0.001889        -0.828270
 C         2.490049        -0.151457        -2.446129
 C         2.956166        -1.464635        -3.105210
 O         1.791621        -2.307138        -3.206021
 C         0.633089        -1.761225        -2.625817
 C         1.004022        -0.310658        -2.154742
 H        -0.082795         1.319012        -0.064967
 H        -0.590842        -0.389317         0.344035
 H         0.742466         0.386097         1.299049
 H         3.432868         0.557056        -0.182892
 H         2.909020         0.719165        -3.064144
 H         3.364756        -1.309349        -4.156264
 H         3.881224        -1.907096        -2.665306
 H        -0.176529        -1.749900        -3.402564
 H         0.340056        -2.475695        -1.884639
 H         0.206257         0.269550        -2.645382
