19
Iteration:  3096charge 0 multiplicity 1
 C         0.263340         0.304880         0.443449
 C         1.245952        -0.219952        -0.644981
 O         2.150731        -1.254727        -0.290167
 C         2.643462        -0.004391        -0.871070
 C         2.477562        -0.166214        -2.407181
 C         2.936814        -1.539397        -2.955255
 O         1.856011        -2.319636        -3.281279
 C         0.637849        -1.671295        -2.783726
 C         1.019576        -0.315129        -2.165182
 H        -0.813539         0.303770         0.105526
 H         0.518295        -0.425849         1.204177
 H         0.478581         1.288467         0.721843
 H         3.615845         0.367955        -0.350046
 H         2.792470         0.665011        -3.038890
 H         3.628859        -1.377387        -3.797669
 H         3.497578        -1.876869        -2.126609
 H        -0.208096        -1.616340        -3.624878
 H         0.246195        -2.329486        -1.949711
 H         0.390890         0.399544        -2.626941
