19
Iteration:  1847
 C         0.250689         0.231917         0.335321
 C         1.286116        -0.257589        -0.593649
 O         2.232691        -1.173825        -0.147428
 C         2.773856        -0.006278        -0.908529
 C         2.440458        -0.151980        -2.440404
 C         2.854144        -1.463575        -3.099223
 O         1.827910        -2.457170        -3.003014
 C         0.612425        -1.594853        -2.981873
 C         0.950445        -0.398894        -2.103735
 H        -0.481382         0.881491        -0.052275
 H        -0.229084        -0.582380         0.913104
 H         0.856167         0.772809         1.185290
 H         3.475507         0.901860        -0.442879
 H         2.595703         0.863298        -3.021520
 H         3.145397        -1.285315        -4.146566
 H         3.852904        -1.777858        -2.681492
 H         0.377756        -1.357230        -4.004686
 H        -0.067005        -2.303865        -2.626656
 H         0.438546         0.539505        -2.424777
