19
Iteration:  1973
 C         0.225083         0.350180         0.352529
 C         1.248123        -0.266781        -0.635113
 O         2.298015        -1.203360        -0.115701
 C         2.720837        -0.030560        -0.887813
 C         2.437969        -0.158934        -2.377675
 C         2.916784        -1.406141        -3.173266
 O         1.860387        -2.406673        -3.057978
 C         0.644027        -1.703421        -2.876617
 C         0.905011        -0.471069        -2.172346
 H         0.294998         1.563193         0.299071
 H        -0.911501         0.178723         0.109413
 H         0.541504         0.160416         1.332030
 H         3.479041         0.610024        -0.413427
 H         2.536261         0.763344        -2.964761
 H         3.092364        -1.079984        -4.177906
 H         3.825547        -1.789965        -2.715961
 H         0.322896        -1.540383        -3.883311
 H        -0.139316        -2.390749        -2.397922
 H         0.207944         0.386802        -2.380517
