19
Iteration:  4643charge 0 multiplicity 1
 C         0.165605         0.406638         0.190610
 C         1.232989        -0.287975        -0.586582
 O         1.901417        -1.485164        -0.258591
 C         2.710116        -0.438256        -0.556729
 C         2.843851        -0.314261        -2.093121
 C         2.955950        -1.554801        -3.003931
 O         1.689252        -2.117253        -3.378773
 C         0.618292        -1.300476        -3.053211
 C         1.214386        -0.200193        -2.115522
 H        -0.041821        -0.003646         1.254493
 H         0.394630         1.384067         0.323420
 H        -0.808856         0.419446        -0.336126
 H         3.364014        -0.013396         0.239622
 H         3.567864         0.423944        -2.366647
 H         3.561692        -1.189440        -3.815739
 H         3.560709        -2.454428        -2.717193
 H         0.322812        -0.722883        -3.937906
 H        -0.195287        -1.875649        -2.713549
 H         0.869544         0.803466        -2.338882
