19
Iteration:  4228
 C         0.243806         0.334162         0.213011
 C         1.278284        -0.172317        -0.628477
 O         1.826025        -1.543516        -0.279319
 C         2.720291        -0.376297        -0.641958
 C         2.767724        -0.295792        -2.157866
 C         2.965339        -1.664246        -2.945009
 O         1.708540        -1.999845        -3.465255
 C         0.656610        -1.312077        -2.858554
 C         1.178352        -0.129061        -2.154313
 H         0.197832        -0.226873         1.160505
 H         0.258235         1.393703         0.359147
 H        -0.724062        -0.053838        -0.263588
 H         3.528665        -0.122441         0.213509
 H         3.425037         0.561502        -2.379558
 H         3.741573        -1.647214        -3.762770
 H         3.299281        -2.389483        -2.112047
 H        -0.113590        -1.170100        -3.620846
 H         0.239822        -2.168327        -2.191368
 H         0.808279         0.778994        -2.649750
