19
Iteration:   129
 C         0.326027         0.282679         0.439591
 C         1.157413        -0.199901        -0.687634
 O         2.190513        -1.182017        -0.164699
 C         2.601027         0.027984        -0.827313
 C         2.482933        -0.203831        -2.435278
 C         2.982500        -1.513561        -3.108100
 O         1.877066        -2.429534        -3.250592
 C         0.643493        -1.721826        -2.664822
 C         0.963107        -0.272456        -2.254233
 H         0.215583         1.301739         0.192298
 H        -0.843561         0.002950         0.367541
 H         0.799242         0.110030         1.372489
 H         3.250894         0.609388        -0.389384
 H         3.023813         0.580630        -2.964782
 H         3.202925        -1.222692        -4.166000
 H         3.852051        -1.943138        -2.528425
 H        -0.025815        -1.733145        -3.482653
 H         0.285922        -2.341071        -1.808344
 H         0.231297         0.498280        -2.721448
