19
Iteration:   844charge 0 multiplicity 1
 C         0.273841         0.080042         0.376360
 C         1.221448        -0.196361        -0.707490
 O         2.317546        -1.162145        -0.310203
 C         2.654819         0.077777        -0.900682
 C         2.539919        -0.180364        -2.456546
 C         2.900398        -1.477661        -3.107882
 O         1.814754        -2.395271        -2.799131
 C         0.539095        -1.611544        -2.856050
 C         0.966672        -0.294994        -2.213923
 H        -0.245299         0.942194         0.165805
 H        -0.435669        -0.786463         0.384795
 H         0.712633         0.145583         1.286159
 H         3.653230         0.509336        -0.482665
 H         2.809540         0.646816        -3.064079
 H         2.942876        -1.310464        -4.153140
 H         3.781290        -1.888755        -2.593020
 H         0.021708        -1.485312        -3.844132
 H         0.029736        -2.269117        -2.170274
 H         0.413581         0.525961        -2.601214
