19
Iteration:   298charge 0 multiplicity 1
 C         0.268060         0.274983         0.407486
 C         1.184794        -0.235785        -0.687785
 O         2.225423        -1.250850        -0.412800
 C         2.640025        -0.006342        -0.925446
 C         2.481913        -0.197247        -2.462938
 C         3.018879        -1.511503        -2.863070
 O         1.845725        -2.284638        -3.150968
 C         0.605032        -1.687144        -2.698700
 C         0.903323        -0.309646        -2.194054
 H        -0.658460         0.977775         0.154775
 H         0.002956        -0.540962         0.985037
 H         0.942525         0.783404         1.204865
 H         3.672137         0.323839        -0.315358
 H         2.636306         0.645604        -3.155794
 H         3.664390        -1.434930        -3.840967
 H         3.659671        -1.956242        -2.174001
 H        -0.049220        -1.661914        -3.570956
 H         0.171150        -2.279693        -1.861767
 H         0.543350         0.653944        -2.547595
