19
Iteration:  1987
 C         0.259030         0.459875         0.401520
 C         1.271972        -0.247975        -0.492326
 O         2.188595        -1.251354        -0.144585
 C         2.649602        -0.020155        -0.937484
 C         2.431006        -0.180546        -2.464136
 C         2.921916        -1.395231        -3.202880
 O         1.953948        -2.423990        -3.100421
 C         0.656864        -1.787886        -2.930717
 C         0.905740        -0.404396        -2.043232
 H         0.221438         1.678431         0.221165
 H        -0.669579        -0.016188         0.150260
 H         0.319400         0.188917         1.483489
 H         3.479695         0.674100        -0.425119
 H         2.896987         0.819745        -2.920434
 H         3.057972        -1.236798        -4.282309
 H         3.888738        -1.876541        -2.872494
 H         0.148408        -1.366016        -3.818854
 H         0.049295        -2.583855        -2.413093
 H         0.129433         0.300674        -2.387774
