19
Iteration:  3025
 C         0.169720         0.367951         0.378067
 C         1.279212        -0.122686        -0.630783
 O         2.188686        -1.104110        -0.048259
 C         2.717195        -0.052237        -0.797688
 C         2.526683        -0.284254        -2.353817
 C         2.977324        -1.547742        -3.061542
 O         1.777249        -2.140939        -3.603491
 C         0.676926        -1.884559        -2.678880
 C         0.933650        -0.469297        -2.177884
 H        -0.432579         1.245776         0.131388
 H        -0.405283        -0.545786         0.607151
 H         0.755378         0.638277         1.365996
 H         3.466614         0.392448        -0.339427
 H         2.764843         0.588083        -2.999343
 H         3.694306        -1.360161        -3.842376
 H         3.403011        -2.184670        -2.333192
 H        -0.220016        -1.996984        -3.143540
 H         0.633643        -2.512819        -1.706128
 H         0.465772         0.451245        -2.680902
