19
Iteration:  1999
 C         0.312617         0.447709         0.444058
 C         1.201240        -0.189839        -0.533164
 O         2.129888        -1.228154        -0.213718
 C         2.627094        -0.078543        -0.873026
 C         2.414815        -0.169783        -2.403784
 C         2.963295        -1.395612        -3.286052
 O         1.961244        -2.413811        -3.113243
 C         0.687059        -1.805820        -2.819795
 C         0.933839        -0.451975        -2.087024
 H         0.231015         1.603585         0.123588
 H        -0.672317         0.158971         0.247862
 H         0.615439         0.488071         1.555291
 H         3.454889         0.365068        -0.214498
 H         2.421628         0.800064        -3.067378
 H         3.117759        -1.011147        -4.315611
 H         3.915928        -1.795840        -2.844173
 H         0.278951        -1.583234        -3.842574
 H         0.030379        -2.567112        -2.408309
 H         0.421924         0.399115        -2.514764
