19
Iteration:  2694
 C         0.240589         0.298219         0.303306
 C         1.287275        -0.189345        -0.666243
 O         2.094465        -1.250754        -0.168685
 C         2.689134        -0.055909        -0.848712
 C         2.573760        -0.198230        -2.406781
 C         2.919293        -1.331433        -3.289108
 O         1.906890        -2.361108        -3.020770
 C         0.618829        -1.753950        -2.676161
 C         0.948196        -0.368374        -2.183277
 H        -0.058050         1.213944         0.000789
 H        -0.617661        -0.405698         0.417296
 H         0.652326         0.201997         1.269600
 H         3.364906         0.531968        -0.365894
 H         3.015635         0.695226        -2.735915
 H         2.939487        -0.880282        -4.358183
 H         3.863790        -1.798980        -3.083654
 H        -0.106972        -1.756840        -3.586673
 H         0.187540        -2.452520        -1.843302
 H         0.365748         0.496555        -2.696539
