19
Iteration:  4661charge 0 multiplicity 1
 C         0.078387         0.377346         0.205447
 C         1.262166        -0.222292        -0.582164
 O         1.890612        -1.558302        -0.163554
 C         2.751487        -0.430740        -0.548248
 C         2.767101        -0.356667        -2.132864
 C         3.013505        -1.573945        -3.040275
 O         1.712228        -2.139853        -3.377935
 C         0.619160        -1.197628        -3.037627
 C         1.258619        -0.126315        -2.173101
 H         0.147505        -0.009539         1.210030
 H         0.155623         1.550927         0.184757
 H        -0.843361         0.025205        -0.344233
 H         3.565008        -0.254292         0.062387
 H         3.178194         0.553649        -2.551442
 H         3.497001        -1.389874        -4.037759
 H         3.511968        -2.395783        -2.500567
 H         0.125953        -0.811141        -3.951985
 H        -0.107052        -1.788103        -2.418754
 H         1.061218         0.914484        -2.506239
