19
Iteration:  2619charge 0 multiplicity 1
 C         0.452240         0.507590         0.473421
 C         1.140343        -0.235468        -0.625192
 O         1.957872        -1.300280        -0.182226
 C         2.566204        -0.125487        -0.875449
 C         2.454177        -0.131119        -2.429217
 C         2.989171        -1.280041        -3.203603
 O         2.020642        -2.402457        -3.162533
 C         0.713140        -1.893401        -2.724208
 C         0.925809        -0.391240        -2.237541
 H         0.025483         1.384612         0.049229
 H        -0.330073        -0.159835         1.038799
 H         1.174654         0.830775         1.316546
 H         3.232005         0.454897        -0.412605
 H         2.666074         0.848184        -2.874388
 H         3.042984        -0.903052        -4.215800
 H         4.006010        -1.638519        -2.968314
 H         0.050436        -1.966559        -3.604220
 H         0.378394        -2.526443        -1.930250
 H         0.152212         0.369701        -2.646334
