19
Iteration:  2902
 C         0.332329         0.410568         0.427798
 C         1.223821        -0.161153        -0.622148
 O         2.009208        -1.258860        -0.254663
 C         2.629068        -0.041146        -0.892286
 C         2.485415        -0.138548        -2.455754
 C         3.013617        -1.453639        -3.088630
 O         1.895941        -2.278972        -3.316520
 C         0.682616        -1.877005        -2.604412
 C         0.972562        -0.380975        -2.179325
 H         0.205355         1.468475         0.343540
 H        -0.463563        -0.388728         0.594300
 H         0.823510         0.291805         1.486285
 H         3.532525         0.445009        -0.267514
 H         2.567350         0.827801        -2.979594
 H         3.544938        -1.304159        -4.013036
 H         3.694133        -1.924478        -2.424466
 H        -0.079284        -1.915452        -3.415900
 H         0.331454        -2.629384        -1.750753
 H         0.234442         0.310308        -2.693107
