19
Iteration:  4627
 C         0.250309         0.392760         0.262424
 C         1.202234        -0.299868        -0.632616
 O         1.806019        -1.608593        -0.213027
 C         2.680443        -0.320598        -0.579166
 C         2.718874        -0.366834        -2.155745
 C         3.051021        -1.599792        -3.016712
 O         1.755249        -2.180378        -3.360103
 C         0.660811        -1.172998        -3.051431
 C         1.204303        -0.111329        -2.136945
 H         0.070677        -0.105704         1.176336
 H         0.561358         1.548478         0.467809
 H        -0.752442         0.424834        -0.231801
 H         3.472921        -0.031229         0.140079
 H         3.092328         0.655241        -2.504666
 H         3.567916        -1.290001        -4.003431
 H         3.764641        -2.205021        -2.443842
 H         0.174891        -0.908596        -3.988748
 H        -0.111740        -1.762330        -2.436851
 H         0.902035         0.896766        -2.510238
