19
Iteration:  2530charge 0 multiplicity 1
 C         0.144438         0.163660         0.329696
 C         1.312251        -0.230731        -0.617671
 O         2.272710        -1.207601        -0.307272
 C         2.746719         0.091408        -0.880874
 C         2.483211        -0.118135        -2.426707
 C         2.861595        -1.459766        -3.186085
 O         1.837730        -2.446090        -2.855551
 C         0.660568        -1.708305        -2.816223
 C         0.984355        -0.261235        -2.167962
 H        -0.135149         1.086300        -0.035687
 H        -0.748127        -0.615915         0.179053
 H         0.331283         0.025464         1.372138
 H         3.563617         0.581894        -0.324244
 H         2.850232         0.677174        -3.034256
 H         2.847237        -1.136713        -4.226377
 H         3.796536        -1.916381        -2.964982
 H         0.258772        -1.509312        -3.779474
 H        -0.061076        -2.149376        -2.205312
 H         0.172093         0.561566        -2.399766
