19
Iteration:  3037
 C         0.210499         0.378202         0.456939
 C         1.192203        -0.071929        -0.567859
 O         2.179581        -1.186544        -0.150337
 C         2.731107        -0.047001        -0.835176
 C         2.483112        -0.215646        -2.409375
 C         2.999520        -1.589985        -3.015997
 O         1.840224        -2.219840        -3.570044
 C         0.638596        -1.831506        -2.694467
 C         0.967370        -0.378483        -2.159434
 H        -0.643545         0.925071        -0.020093
 H        -0.269125        -0.537924         0.855196
 H         0.639151         0.904708         1.326031
 H         3.515875         0.432741        -0.404060
 H         2.796405         0.748679        -2.857929
 H         3.737223        -1.567486        -3.828109
 H         3.394312        -2.186191        -2.247753
 H        -0.200356        -2.030984        -3.320902
 H         0.725988        -2.609148        -1.854956
 H         0.269402         0.378982        -2.656147
