19
Iteration:  3523
 C         0.386784         0.506082         0.432423
 C         1.185109        -0.179854        -0.630694
 O         1.966218        -1.394627        -0.078100
 C         2.599931        -0.262538        -0.761412
 C         2.551086        -0.272434        -2.264371
 C         3.028561        -1.470790        -3.008925
 O         1.844723        -2.157230        -3.605320
 C         0.656661        -1.741255        -2.830643
 C         0.995313        -0.286629        -2.240969
 H        -0.817957         0.500630         0.270637
 H         0.739991        -0.026138         1.406929
 H         0.699242         1.519744         0.611228
 H         3.468836         0.270717        -0.220171
 H         3.081411         0.629418        -2.551646
 H         3.713714        -1.203667        -3.838532
 H         3.565602        -2.204434        -2.262001
 H        -0.279154        -1.631065        -3.512573
 H         0.515864        -2.317882        -1.908957
 H         0.435870         0.647224        -2.646312
