19
Iteration:  4876
 C         0.303066         0.302748         0.401981
 C         1.285341        -0.128633        -0.658642
 O         1.654058        -1.537132        -0.383511
 C         2.651260        -0.439735        -0.641986
 C         2.792025        -0.318331        -2.110146
 C         3.005602        -1.594733        -2.863595
 O         1.785347        -2.123997        -3.332057
 C         0.711111        -1.279981        -3.060088
 C         1.130665        -0.059948        -2.247890
 H         0.666622        -0.139566         1.261833
 H         0.331551         1.512344         0.666414
 H        -0.727057         0.043967         0.203383
 H         3.365876        -0.416163         0.062121
 H         3.482027         0.410517        -2.676048
 H         3.569714        -1.479367        -3.732446
 H         3.640600        -2.287461        -2.257799
 H         0.229723        -1.004270        -4.062143
 H         0.001627        -1.861033        -2.459696
 H         0.792659         0.890270        -2.627018
