19
Iteration:  2744charge 0 multiplicity 1
 C         0.311590         0.178480         0.454042
 C         1.276004        -0.228896        -0.666039
 O         2.170064        -1.250436        -0.411880
 C         2.658553         0.012800        -0.987934
 C         2.443124        -0.117020        -2.477421
 C         2.986056        -1.482510        -2.984585
 O         1.862975        -2.345378        -2.844931
 C         0.614418        -1.644159        -2.848857
 C         0.937569        -0.304707        -2.198411
 H        -0.059225         1.302334         0.324030
 H        -0.634309        -0.374428         0.267111
 H         0.579655        -0.205643         1.462461
 H         3.478605         0.419251        -0.371452
 H         2.614441         0.829660        -3.077705
 H         3.198785        -1.411688        -4.041856
 H         3.895078        -1.859279        -2.444969
 H         0.251872        -1.500422        -3.860265
 H        -0.044691        -2.298764        -2.335636
 H         0.416562         0.534574        -2.523431
