19
Iteration:  2162charge 0 multiplicity 1
 C         0.276631         0.135334         0.437033
 C         1.199423        -0.229449        -0.668836
 O         2.312374        -1.165900        -0.326909
 C         2.657763         0.110362        -0.935504
 C         2.453936        -0.133075        -2.497810
 C         2.950129        -1.536974        -2.838722
 O         1.838472        -2.398499        -3.056788
 C         0.576527        -1.649872        -2.910263
 C         0.960309        -0.328726        -2.181557
 H         0.102825         1.363467         0.410265
 H        -0.697674        -0.315705         0.443696
 H         0.896453        -0.074842         1.370133
 H         3.311196         0.734395        -0.454535
 H         2.729357         0.666113        -3.243119
 H         3.486873        -1.492290        -3.875969
 H         3.487229        -2.090974        -2.032075
 H        -0.071337        -1.508689        -3.826950
 H        -0.046329        -2.376196        -2.291826
 H         0.446543         0.584425        -2.440252
