19
Iteration:   849
 C         0.273226         0.059007         0.397451
 C         1.225232        -0.193779        -0.697130
 O         2.339547        -1.174590        -0.323234
 C         2.644158         0.091021        -0.916252
 C         2.548130        -0.186369        -2.440265
 C         2.926314        -1.501017        -3.089247
 O         1.802435        -2.399185        -2.788717
 C         0.536555        -1.617762        -2.894594
 C         0.944384        -0.297375        -2.229310
 H        -0.349098         1.067484         0.183503
 H        -0.377346        -0.811201         0.426785
 H         0.848874         0.285930         1.442246
 H         3.422054         0.661457        -0.519756
 H         2.918113         0.727231        -3.018381
 H         2.995652        -1.214769        -4.218555
 H         3.809848        -1.931402        -2.601406
 H         0.067360        -1.500141        -3.868691
 H        -0.183101        -2.086896        -2.151856
 H         0.356066         0.606180        -2.666742
