19
Iteration:  4996charge 0 multiplicity 1
 C         0.248205         0.208188         0.284921
 C         1.243963        -0.200807        -0.684298
 O         1.662540        -1.529136        -0.356828
 C         2.664217        -0.459189        -0.578923
 C         2.889007        -0.300476        -2.181536
 C         2.943903        -1.578918        -2.981376
 O         1.694318        -2.142763        -3.132484
 C         0.746546        -1.164707        -3.084009
 C         1.280999        -0.063281        -2.187323
 H         0.696739         0.320964         1.202475
 H        -0.124692         1.328276         0.044479
 H        -0.577390        -0.454515         0.389496
 H         3.296688        -0.146534         0.126565
 H         3.415873         0.697095        -2.396488
 H         3.489712        -1.555958        -4.016702
 H         3.594672        -2.416304        -2.437998
 H         0.352296        -0.768849        -4.059828
 H        -0.134232        -1.585704        -2.659428
 H         1.012309         0.905255        -2.638738
