19
Iteration:  3486
 C         0.241781         0.507739         0.315381
 C         1.240841        -0.156277        -0.577214
 O         2.050875        -1.367605        -0.150119
 C         2.693580        -0.134793        -0.723449
 C         2.616066        -0.372098        -2.188345
 C         3.015873        -1.582474        -2.996134
 O         1.753695        -1.964362        -3.747817
 C         0.611698        -1.756196        -2.721203
 C         1.050112        -0.423499        -2.062295
 H        -0.646674         0.771716        -0.319288
 H        -0.076696        -0.117569         1.110619
 H         0.638124         1.453194         0.890242
 H         3.504317         0.327632        -0.251150
 H         2.927434         0.519122        -2.775074
 H         3.762462        -1.259127        -3.733974
 H         3.368112        -2.456786        -2.435083
 H        -0.261923        -1.808504        -3.233480
 H         0.765257        -2.593747        -2.075389
 H         0.451665         0.362767        -2.610240
