19
Iteration:  2321
 C         0.493126         0.537275         0.465065
 C         1.156055        -0.226106        -0.627618
 O         1.989131        -1.355546        -0.276204
 C         2.549542        -0.181146        -0.868593
 C         2.374201        -0.144253        -2.432118
 C         2.916587        -1.291923        -3.303061
 O         2.099454        -2.342732        -2.923634
 C         0.772756        -1.838548        -2.727144
 C         0.860817        -0.414909        -2.282871
 H         0.407824         1.495222         0.149126
 H        -0.627369         0.250438         0.714885
 H         1.005175         0.380570         1.359256
 H         3.452397         0.379754        -0.225224
 H         2.502774         0.881616        -2.749607
 H         2.701965        -1.108231        -4.415624
 H         3.964407        -1.587284        -3.150901
 H         0.163117        -2.001203        -3.698844
 H         0.355669        -2.305145        -1.937644
 H         0.131128         0.361720        -2.751492
