19
Iteration:  3074charge 0 multiplicity 1
 C         0.355358         0.310859         0.434830
 C         1.215392        -0.231477        -0.738192
 O         2.207214        -1.274476        -0.318756
 C         2.582610        -0.054524        -0.834793
 C         2.555699        -0.129104        -2.343355
 C         3.038328        -1.551627        -2.866933
 O         1.813975        -2.207235        -3.336311
 C         0.575728        -1.797846        -2.717392
 C         0.917038        -0.302217        -2.248261
 H        -0.672933         0.683788         0.039855
 H         0.235430        -0.439294         1.224739
 H         0.763637         1.242720         0.685575
 H         3.310987         0.723993        -0.238001
 H         2.694762         0.726464        -2.992128
 H         3.696089        -1.504109        -3.759927
 H         3.572507        -1.971757        -1.997360
 H        -0.360727        -1.847207        -3.517784
 H         0.239711        -2.395077        -1.808660
 H         0.252432         0.429728        -2.624517
