19
Iteration:  3453charge 0 multiplicity 1
 C         0.190018         0.364356         0.259750
 C         1.274965        -0.224365        -0.553622
 O         2.033914        -1.272668        -0.020307
 C         2.713376        -0.110405        -0.744437
 C         2.692485        -0.276755        -2.320855
 C         2.930152        -1.641048        -3.009408
 O         1.687447        -1.983698        -3.787176
 C         0.690016        -1.700894        -2.660977
 C         1.106621        -0.397185        -2.091055
 H        -0.314820         1.176438        -0.306602
 H        -0.541544        -0.375580         0.626959
 H         0.617397         0.813098         1.241931
 H         3.484901         0.340505        -0.237272
 H         2.991590         0.628057        -2.902040
 H         3.793666        -1.675573        -3.714659
 H         3.150725        -2.430107        -2.188073
 H        -0.241345        -1.727356        -3.069285
 H         0.735723        -2.458863        -1.872543
 H         0.555108         0.526642        -2.452917
