19
Iteration:  1792charge 0 multiplicity 1
 C         0.374790         0.415418         0.397816
 C         1.208953        -0.191385        -0.577498
 O         2.106577        -1.276359        -0.256311
 C         2.581068        -0.010886        -0.829636
 C         2.535445        -0.121971        -2.402586
 C         2.986701        -1.383562        -3.157634
 O         1.857745        -2.381654        -3.249873
 C         0.659369        -1.821523        -2.680647
 C         0.936827        -0.429271        -2.178104
 H         0.136215         1.481919         0.160063
 H        -0.611375        -0.160862         0.447285
 H         0.777073         0.355547         1.519697
 H         3.482344         0.574774        -0.249901
 H         2.827261         0.878502        -2.932706
 H         3.276672        -1.197022        -4.202110
 H         3.773346        -1.965056        -2.574789
 H        -0.075714        -1.817980        -3.510697
 H         0.294798        -2.545491        -1.997787
 H         0.241532         0.308217        -2.649794
