19
Iteration:  4906
 C         0.225215         0.437369         0.426137
 C         1.123895        -0.221214        -0.609997
 O         1.812007        -1.602585        -0.283745
 C         2.597987        -0.408349        -0.623503
 C         2.842649        -0.314822        -2.124738
 C         3.054636        -1.616241        -2.929180
 O         1.715122        -2.169016        -3.432789
 C         0.719426        -1.187511        -3.112278
 C         1.197668        -0.145050        -2.213622
 H         0.902230         0.538515         1.312015
 H         0.011833         1.430558         0.140625
 H        -0.715595        -0.097714         0.739177
 H         3.387051        -0.145296         0.166504
 H         3.421765         0.505132        -2.480528
 H         3.686805        -1.471285        -3.894653
 H         3.596790        -2.361305        -2.257999
 H         0.303315        -0.855135        -4.134853
 H        -0.103472        -1.768498        -2.678394
 H         0.871456         0.899557        -2.436759
