19
Iteration:  3615charge 0 multiplicity 1
 C         0.084652         0.231098         0.416433
 C         1.270069        -0.154149        -0.590473
 O         2.071064        -1.311212        -0.202298
 C         2.744528        -0.150859        -0.690174
 C         2.690475        -0.311448        -2.323993
 C         2.981261        -1.650349        -3.068048
 O         1.685346        -2.197845        -3.458082
 C         0.623604        -1.423758        -2.848945
 C         1.166331        -0.229260        -2.152723
 H        -0.213476        -0.522075         1.105585
 H         0.404387         1.191691         0.893510
 H        -0.859456         0.508788        -0.302863
 H         3.517140         0.210593        -0.006749
 H         3.244208         0.536673        -2.798159
 H         3.635544        -1.551865        -3.974474
 H         3.452695        -2.327942        -2.308755
 H        -0.079332        -1.290765        -3.744206
 H         0.250695        -2.119118        -1.980054
 H         0.760116         0.646433        -2.457049
