19
Iteration:  4549
 C         0.339907         0.427861         0.319070
 C         1.217238        -0.236303        -0.601953
 O         1.642442        -1.619923        -0.356552
 C         2.626694        -0.584855        -0.659513
 C         2.773377        -0.352177        -2.164223
 C         3.101627        -1.424913        -3.093030
 O         1.784201        -2.144713        -3.018648
 C         0.615334        -1.259728        -3.132284
 C         1.234620        -0.045924        -2.202054
 H         0.839727         0.601797         1.292340
 H        -0.147188         1.436282        -0.134468
 H        -0.473025        -0.263666         0.491860
 H         3.423498        -0.558752         0.180234
 H         3.286708         0.685059        -2.323677
 H         3.338271        -1.071311        -4.144290
 H         3.939660        -2.072747        -2.823912
 H         0.344354        -1.067413        -4.105249
 H        -0.227678        -1.794543        -2.559276
 H         0.877371         0.910219        -2.683970
