19
Iteration:  2387charge 0 multiplicity 1
 C         0.190419         0.323743         0.385445
 C         1.247613        -0.134340        -0.684178
 O         2.177856        -1.230560        -0.144186
 C         2.712119        -0.089801        -0.848559
 C         2.527034        -0.139441        -2.467317
 C         2.904668        -1.379742        -3.311115
 O         1.907607        -2.395981        -3.061046
 C         0.621093        -1.746263        -2.647881
 C         1.005662        -0.404797        -2.156469
 H        -0.149951         1.269206         0.079944
 H        -0.744036        -0.458148         0.357924
 H         0.481579         0.296134         1.403971
 H         3.566757         0.530514        -0.288336
 H         2.748760         0.788250        -2.980775
 H         2.910944        -1.082905        -4.437560
 H         3.850385        -1.898871        -3.086292
 H         0.047727        -1.623629        -3.701972
 H         0.196820        -2.392045        -1.984857
 H         0.178549         0.311688        -2.533800
