19
Iteration:  3926
 C         0.122961         0.295403         0.305391
 C         1.259026        -0.216050        -0.613614
 O         2.060909        -1.367926        -0.255961
 C         2.747229        -0.258522        -0.567036
 C         2.794478        -0.289530        -2.174083
 C         2.901129        -1.728015        -2.954515
 O         1.674332        -2.013376        -3.608227
 C         0.587761        -1.421698        -2.924909
 C         1.211607        -0.233102        -2.109499
 H        -0.933932        -0.297455         0.148009
 H         0.385966         0.362458         1.377162
 H        -0.219279         1.203130        -0.124178
 H         3.523164         0.108561         0.065115
 H         3.390933         0.501700        -2.666478
 H         3.736985        -1.776666        -3.644582
 H         3.044159        -2.489423        -2.044766
 H        -0.187047        -1.163674        -3.627967
 H         0.051402        -2.063160        -2.190048
 H         0.902264         0.808870        -2.247828
