19
Iteration:   508
 C         0.217381         0.258123         0.319118
 C         1.256433        -0.188694        -0.653476
 O         2.200503        -1.229814        -0.280165
 C         2.689931        -0.025000        -0.901805
 C         2.524268        -0.173968        -2.403863
 C         2.939464        -1.452882        -3.080178
 O         1.811955        -2.364460        -3.160309
 C         0.648087        -1.721375        -2.609935
 C         0.984903        -0.316495        -2.161567
 H        -0.652661         0.686798        -0.344750
 H        -0.120355        -0.459862         1.023656
 H         0.588009         1.041051         0.962373
 H         3.401913         0.648436        -0.548387
 H         2.676084         0.733389        -2.939415
 H         3.252694        -1.132696        -4.107480
 H         3.752673        -2.071195        -2.758621
 H        -0.130206        -1.792564        -3.305145
 H         0.402431        -2.386023        -1.752423
 H         0.457849         0.552317        -2.507900
