19
Iteration:  3723
 C         0.304290         0.459906         0.398777
 C         1.212076        -0.162010        -0.616732
 O         1.915640        -1.406486        -0.080330
 C         2.697072        -0.279135        -0.663894
 C         2.662238        -0.374260        -2.218404
 C         2.986469        -1.620049        -3.043746
 O         1.729175        -1.957967        -3.764879
 C         0.691408        -1.659197        -2.794717
 C         1.110856        -0.266044        -2.125412
 H         0.807712         0.990374         1.162637
 H        -0.267690         1.286647        -0.081034
 H        -0.503702        -0.257659         0.748154
 H         3.391246         0.106313         0.070522
 H         3.008795         0.599140        -2.645895
 H         3.776529        -1.377642        -3.831155
 H         3.365847        -2.430174        -2.307574
 H        -0.314417        -1.641144        -3.342443
 H         0.565432        -2.417360        -2.057148
 H         0.820985         0.655564        -2.664708
