19
Iteration:  1341
 C         0.338503         0.417209         0.418763
 C         1.202385        -0.207546        -0.591015
 O         2.234274        -1.164805        -0.045300
 C         2.653360         0.057052        -0.829012
 C         2.469192        -0.183539        -2.308909
 C         3.013083        -1.557710        -3.072043
 O         1.825045        -2.308630        -3.490840
 C         0.582938        -1.828166        -2.833229
 C         0.920883        -0.481937        -2.180271
 H        -0.335604         1.382332         0.051831
 H        -0.460373        -0.311225         0.708013
 H         0.923717         0.846888         1.242465
 H         3.494663         0.672741        -0.296938
 H         2.452247         0.687105        -2.912432
 H         3.686885        -1.305956        -3.930442
 H         3.673938        -2.149029        -2.393123
 H        -0.149693        -1.800617        -3.671960
 H         0.213959        -2.553972        -2.158229
 H         0.339586         0.391607        -2.542560
