19
Iteration:  3027charge 0 multiplicity 1
 C         0.179112         0.370677         0.398713
 C         1.276371        -0.109493        -0.614749
 O         2.195981        -1.115150        -0.068112
 C         2.711673        -0.059207        -0.792113
 C         2.508648        -0.265184        -2.370363
 C         2.986480        -1.556374        -3.057353
 O         1.801648        -2.156746        -3.597178
 C         0.663503        -1.871833        -2.682591
 C         0.926910        -0.457669        -2.182887
 H        -0.588243         1.234476         0.169603
 H        -0.379901        -0.528878         0.628209
 H         0.696171         0.682195         1.274899
 H         3.546568         0.356243        -0.318089
 H         2.801206         0.633132        -2.967726
 H         3.746514        -1.423147        -3.867540
 H         3.348650        -2.200362        -2.342716
 H        -0.325406        -2.060756        -3.196647
 H         0.629951        -2.527649        -1.685144
 H         0.480876         0.455087        -2.672736
