19
Iteration:  4391charge 0 multiplicity 1
 C         0.154143         0.443002         0.385433
 C         1.192644        -0.155511        -0.577512
 O         1.851987        -1.475502        -0.241258
 C         2.748607        -0.409997        -0.598396
 C         2.777038        -0.453500        -2.174393
 C         3.017619        -1.783560        -2.917611
 O         1.747970        -1.906315        -3.662467
 C         0.690059        -1.361988        -2.963766
 C         1.220728        -0.147461        -2.139170
 H         0.014787         0.282208         1.491250
 H        -0.150981         1.453525         0.202598
 H        -0.803831        -0.181138         0.076254
 H         3.323184         0.067186         0.282242
 H         3.193279         0.432597        -2.594948
 H         3.883378        -1.640002        -3.611448
 H         3.243901        -2.640935        -2.276728
 H        -0.076978        -1.093963        -3.624352
 H         0.177326        -2.033590        -2.221336
 H         0.933030         0.765170        -2.681277
