19
Iteration:  2923charge 0 multiplicity 1
 C         0.340196         0.506301         0.486039
 C         1.041508        -0.213700        -0.642862
 O         2.138862        -1.204202        -0.248558
 C         2.598232        -0.077078        -0.828872
 C         2.518422        -0.222961        -2.330957
 C         2.981924        -1.458962        -3.128152
 O         1.879072        -2.312186        -3.439552
 C         0.775746        -1.851060        -2.642482
 C         0.879467        -0.423761        -2.206201
 H         0.556332         1.585784         0.390633
 H        -0.708162         0.035987         0.545004
 H         0.666614         0.144017         1.536611
 H         3.379949         0.750576        -0.325663
 H         2.911533         0.688853        -2.803397
 H         3.523188        -1.059369        -3.982591
 H         3.701549        -2.026997        -2.544315
 H        -0.274673        -2.004641        -3.050773
 H         0.847733        -2.478636        -1.675488
 H         0.426613         0.388766        -2.799291
