19
Iteration:   424charge 0 multiplicity 1
 C         0.371622         0.624641         0.405856
 C         1.112624        -0.238745        -0.544059
 O         2.131115        -1.120354        -0.131432
 C         2.577506         0.063326        -0.815698
 C         2.461566        -0.297858        -2.327689
 C         2.962925        -1.539588        -3.119728
 O         1.822787        -2.123826        -3.682700
 C         0.833593        -2.039770        -2.582730
 C         0.964922        -0.601601        -2.109942
 H         0.365535         1.626258         0.142888
 H        -0.806043         0.167098         0.446307
 H         0.817264         0.536801         1.425215
 H         3.244436         0.680192        -0.308867
 H         2.541029         0.657510        -2.921420
 H         3.573105        -1.166635        -3.916673
 H         3.484751        -2.383759        -2.498167
 H        -0.211599        -2.226692        -2.969486
 H         0.991558        -2.823476        -1.809817
 H         0.268392         0.072464        -2.676082
