19
Iteration:  3852
 C         0.294111         0.383507         0.418220
 C         1.177601        -0.270362        -0.585690
 O         1.962062        -1.396512        -0.264605
 C         2.663282        -0.253020        -0.699227
 C         2.719079        -0.320901        -2.212125
 C         2.977058        -1.805487        -2.874984
 O         1.770227        -1.922435        -3.629917
 C         0.669520        -1.508431        -2.938003
 C         1.059804        -0.182124        -2.144239
 H        -0.634346         0.935684         0.051915
 H        -0.059004        -0.420721         1.088666
 H         0.786298         1.133863         1.025526
 H         3.351401         0.273521        -0.034702
 H         3.083180         0.549338        -2.784616
 H         3.878151        -1.898341        -3.514431
 H         3.080977        -2.533584        -2.057068
 H        -0.170581        -1.312249        -3.633010
 H         0.470501        -2.142914        -2.027985
 H         0.714374         0.874761        -2.614789
