19
Iteration:  2023
 C         0.417142         0.470439         0.378314
 C         1.136648        -0.228699        -0.671306
 O         2.047493        -1.299064        -0.226513
 C         2.592261        -0.156759        -0.864887
 C         2.501487        -0.114957        -2.365798
 C         2.916032        -1.306492        -3.215152
 O         1.985661        -2.363541        -3.070783
 C         0.681981        -1.873529        -2.705733
 C         0.921123        -0.363908        -2.233526
 H         0.086419         1.456953         0.214432
 H        -0.428316        -0.115072         0.643065
 H         1.145270         0.529680         1.292501
 H         3.186416         0.412175        -0.270042
 H         2.986531         0.741427        -2.844248
 H         2.925146        -0.824809        -4.248814
 H         3.903638        -1.717215        -2.966582
 H        -0.053065        -2.044258        -3.564362
 H         0.362506        -2.485853        -1.934245
 H         0.302995         0.398496        -2.651582
