19
Iteration:  4148charge 0 multiplicity 1
 C         0.355638         0.305502         0.365185
 C         1.211990        -0.308560        -0.645179
 O         1.932821        -1.494604        -0.170374
 C         2.714644        -0.407077        -0.623488
 C         2.671350        -0.268851        -2.201387
 C         2.889307        -1.719617        -2.714556
 O         1.741180        -1.983038        -3.584163
 C         0.645666        -1.247315        -3.121426
 C         1.168591        -0.110393        -2.217713
 H         0.821740         0.744005         1.219971
 H        -0.464568         0.956650        -0.094436
 H        -0.410326        -0.485442         0.628433
 H         3.204399         0.195516         0.014330
 H         3.376683         0.427786        -2.529830
 H         3.839120        -1.765485        -3.302843
 H         2.890334        -2.478463        -1.930072
 H         0.302076        -0.879519        -4.030210
 H        -0.091175        -1.992539        -2.598114
 H         0.805238         0.866642        -2.639856
