19
Iteration:  1014
 C         0.387434         0.566206         0.381647
 C         1.166080        -0.208177        -0.629299
 O         2.080166        -1.245170        -0.167717
 C         2.625976        -0.038842        -0.884312
 C         2.421605        -0.183054        -2.370722
 C         2.939004        -1.425189        -3.160257
 O         1.863049        -2.225128        -3.549056
 C         0.808203        -2.019494        -2.475589
 C         0.912334        -0.453438        -2.104503
 H         0.393290         1.679891         0.259013
 H        -0.650853         0.298719         0.295729
 H         0.826703         0.387719         1.396552
 H         3.318250         0.578864        -0.475101
 H         2.930462         0.707843        -2.782439
 H         3.533857        -1.250570        -4.077701
 H         3.539302        -2.085156        -2.538811
 H        -0.316877        -2.313726        -2.734716
 H         1.067313        -2.625543        -1.596619
 H         0.084066         0.162161        -2.601414
