19
Iteration:  2588charge 0 multiplicity 1
 C         0.296760         0.401439         0.460922
 C         1.166386        -0.138846        -0.641261
 O         2.029873        -1.282097        -0.327916
 C         2.664214        -0.122826        -0.895136
 C         2.438084        -0.164899        -2.454462
 C         2.965427        -1.286642        -3.208338
 O         1.985882        -2.417256        -3.071405
 C         0.710441        -1.846581        -2.650261
 C         0.995650        -0.367641        -2.143187
 H         0.037970         1.519353         0.382018
 H        -0.695695        -0.057304         0.506628
 H         0.901131         0.478746         1.454023
 H         3.380358         0.432025        -0.395613
 H         2.601435         0.827246        -2.991683
 H         2.982335        -1.024095        -4.267553
 H         3.935281        -1.761238        -2.927162
 H         0.168772        -1.791949        -3.559414
 H         0.259435        -2.556605        -2.075107
 H         0.285154         0.297786        -2.580646
