19
Iteration:  4359charge 0 multiplicity 1
 C         0.245636         0.485318         0.205812
 C         1.242297        -0.279392        -0.631574
 O         1.789039        -1.435502        -0.040025
 C         2.703752        -0.486442        -0.540792
 C         2.777901        -0.414992        -2.106529
 C         2.963790        -1.666393        -2.934969
 O         1.713034        -1.764850        -3.820118
 C         0.686018        -1.450947        -2.883264
 C         1.240834        -0.289347        -2.144042
 H         0.694399         0.756360         1.238585
 H        -0.195611         1.301687        -0.322512
 H        -0.639973        -0.259122         0.321111
 H         3.331459         0.069762         0.235317
 H         3.148926         0.494619        -2.557127
 H         3.905184        -1.679435        -3.485952
 H         2.926927        -2.424854        -2.191047
 H        -0.119798        -1.242952        -3.537436
 H         0.607725        -2.344761        -2.140690
 H         0.923922         0.637878        -2.614671
