19
Iteration:  1450
 C         0.208115         0.328680         0.371295
 C         1.205282        -0.179529        -0.647033
 O         2.189404        -1.211304        -0.214307
 C         2.712849        -0.062717        -0.804982
 C         2.561287        -0.223733        -2.383051
 C         2.923695        -1.453643        -3.095422
 O         1.844420        -2.312040        -3.320670
 C         0.610843        -1.775069        -2.631380
 C         1.001600        -0.355008        -2.220056
 H        -0.361028         1.277763        -0.094842
 H        -0.495840        -0.351521         0.735820
 H         0.724760         0.729539         1.219509
 H         3.556654         0.551742        -0.233571
 H         2.711510         0.824617        -2.920990
 H         3.519508        -1.302751        -4.021813
 H         3.705529        -1.972352        -2.493328
 H        -0.291283        -1.635026        -3.328500
 H         0.272563        -2.584483        -1.804242
 H         0.385352         0.356484        -2.802158
