19
Iteration:  4436charge 0 multiplicity 1
 C         0.286798         0.341290         0.369129
 C         1.168884        -0.202153        -0.603145
 O         1.855265        -1.562553        -0.421349
 C         2.630136        -0.368979        -0.634560
 C         2.747608        -0.316980        -2.158159
 C         3.002608        -1.707988        -2.791495
 O         1.787543        -2.066090        -3.464443
 C         0.595187        -1.225611        -3.003223
 C         1.215031        -0.110754        -2.230025
 H         0.452816        -0.093142         1.453880
 H         0.489354         1.378923         0.463720
 H        -0.840499         0.198289         0.239348
 H         3.275614         0.081754         0.060664
 H         3.328121         0.487074        -2.581961
 H         3.935768        -1.792910        -3.361731
 H         3.223503        -2.269491        -1.902379
 H         0.095973        -0.982394        -3.882377
 H        -0.060937        -1.870653        -2.363466
 H         0.999251         0.880787        -2.580893
