19
Iteration:  2815
 C         0.195495         0.143220         0.433226
 C         1.285692        -0.092648        -0.577628
 O         2.324640        -1.120304        -0.140633
 C         2.704063        -0.027711        -0.894371
 C         2.470060        -0.137289        -2.466561
 C         2.936767        -1.540540        -3.061811
 O         1.768475        -2.439927        -3.060758
 C         0.617542        -1.641103        -2.989965
 C         0.975030        -0.309548        -2.188540
 H        -0.712401         0.578017        -0.008902
 H        -0.151779        -0.908072         0.794736
 H         0.574630         0.623282         1.426537
 H         3.505354         0.767114        -0.553023
 H         2.818747         0.629208        -3.199347
 H         3.305027        -1.385630        -4.107225
 H         3.692040        -2.106232        -2.497587
 H         0.251918        -1.418100        -3.952236
 H        -0.230509        -2.226719        -2.403940
 H         0.198537         0.551565        -2.546132
