19
Iteration:  4288
 C         0.434315         0.469341         0.394611
 C         1.184560        -0.230141        -0.643015
 O         1.681689        -1.420916        -0.133448
 C         2.639875        -0.492227        -0.575461
 C         2.648629        -0.385877        -2.120815
 C         3.058678        -1.576353        -2.922864
 O         1.858119        -1.936659        -3.715269
 C         0.682565        -1.471409        -2.977047
 C         1.083413        -0.263172        -2.230966
 H         1.009578         0.374573         1.318638
 H         0.259041         1.574622         0.127757
 H        -0.579539         0.110157         0.498033
 H         3.296185        -0.118508         0.092483
 H         3.153927         0.578293        -2.348913
 H         3.862568        -1.394348        -3.654264
 H         3.355475        -2.459217        -2.238814
 H        -0.259732        -1.263140        -3.587034
 H         0.541846        -2.093918        -2.183263
 H         0.872378         0.680828        -2.781381
