19
Iteration:   717charge 0 multiplicity 1
 C         0.466458         0.623084         0.340297
 C         1.138712        -0.292555        -0.602024
 O         2.011889        -1.252886        -0.162505
 C         2.604848        -0.177680        -0.847018
 C         2.430615        -0.205135        -2.355756
 C         2.917771        -1.273165        -3.283529
 O         1.974852        -2.348112        -3.257608
 C         0.793544        -1.862522        -2.655218
 C         0.891406        -0.514605        -2.140134
 H        -0.299218         1.245879        -0.270168
 H        -0.142832         0.069424         0.956683
 H         1.177726         1.170614         1.033990
 H         3.323359         0.371003        -0.151009
 H         2.604831         0.931588        -2.546713
 H         3.105251        -0.866562        -4.224047
 H         3.889315        -1.676599        -3.006870
 H         0.004216        -2.112099        -3.448620
 H         0.442859        -2.490703        -1.759284
 H         0.135066         0.264360        -2.569490
