19
Iteration:  3253charge 0 multiplicity 1
 C         0.349959         0.397107         0.434944
 C         1.216827        -0.214823        -0.610239
 O         1.956671        -1.395669        -0.345812
 C         2.716768        -0.112983        -0.818332
 C         2.505573        -0.164492        -2.369364
 C         2.950136        -1.407962        -3.157164
 O         1.906241        -2.354385        -3.075396
 C         0.687518        -1.626217        -2.837911
 C         1.008356        -0.345444        -2.152980
 H         0.261750        -0.100623         1.330737
 H         0.421472         1.506365         0.577162
 H        -0.796149         0.301362         0.081531
 H         3.520849         0.197329        -0.147276
 H         2.814986         0.784659        -2.843474
 H         3.250188        -1.071444        -4.187120
 H         3.816022        -1.907526        -2.581342
 H         0.303041        -1.355610        -3.775343
 H         0.017612        -2.190394        -2.240457
 H         0.311048         0.394752        -2.567881
