19
Iteration:  3775charge 0 multiplicity 1
 C         0.361829         0.554690         0.266350
 C         1.241177        -0.263669        -0.623444
 O         1.822972        -1.472426        -0.124823
 C         2.715569        -0.377384        -0.540303
 C         2.712503        -0.308889        -2.163757
 C         2.966620        -1.476082        -3.141230
 O         1.737927        -1.954494        -3.679266
 C         0.715274        -1.654082        -2.746933
 C         1.053617        -0.336389        -2.154928
 H         0.796922         1.605654         0.381715
 H        -0.634052         0.818584        -0.132546
 H         0.199053         0.054032         1.151162
 H         3.399873        -0.066479         0.162230
 H         3.145975         0.635759        -2.459675
 H         3.616838        -1.222449        -3.957779
 H         3.410154        -2.193128        -2.529544
 H        -0.280947        -1.637682        -3.208504
 H         0.745048        -2.449765        -1.877091
 H         0.366336         0.496544        -2.653298
