19
Iteration:  1290charge 0 multiplicity 1
 C         0.321459         0.379679         0.361056
 C         1.206214        -0.176683        -0.669319
 O         2.019725        -1.350328        -0.392476
 C         2.685855        -0.140109        -0.824281
 C         2.495953        -0.122832        -2.420816
 C         2.898051        -1.365942        -3.161155
 O         1.881668        -2.332727        -3.113451
 C         0.740464        -1.777372        -2.541275
 C         0.991532        -0.312872        -2.211781
 H        -0.198426         1.210268        -0.056451
 H        -0.456121        -0.364712         0.766324
 H         0.877899         0.826305         1.080609
 H         3.521891         0.326306        -0.119587
 H         2.959721         0.717234        -2.950307
 H         3.215974        -1.014679        -4.149569
 H         3.815451        -1.778457        -2.658724
 H        -0.070756        -2.029795        -3.242202
 H         0.482634        -2.296753        -1.569491
 H         0.301012         0.391997        -2.627355
