19
Iteration:  1164charge 0 multiplicity 1
 C         0.310794         0.189722         0.391651
 C         1.247756        -0.166176        -0.696175
 O         2.213594        -1.168159        -0.383695
 C         2.640331         0.097778        -0.927715
 C         2.567693        -0.191025        -2.385862
 C         2.989073        -1.535972        -2.840284
 O         1.763680        -2.375957        -3.212420
 C         0.587196        -1.694280        -2.754791
 C         0.948820        -0.325886        -2.154015
 H        -0.270692         1.208808         0.108045
 H        -0.399730        -0.583505         0.536845
 H         0.870483         0.100079         1.452369
 H         3.427960         0.559444        -0.521274
 H         2.886929         0.764390        -2.868882
 H         3.553016        -1.459394        -3.832115
 H         3.561307        -2.068569        -2.066757
 H        -0.113621        -1.595090        -3.636118
 H         0.153922        -2.270287        -1.972720
 H         0.145609         0.433717        -2.490683
