19
Iteration:  2229
 C         0.144493         0.167946         0.331258
 C         1.302292        -0.066341        -0.567816
 O         2.266791        -1.190397        -0.247251
 C         2.748936         0.025864        -0.909247
 C         2.531520        -0.146964        -2.441892
 C         2.964932        -1.524235        -3.084561
 O         1.805462        -2.375209        -3.115666
 C         0.558497        -1.739415        -2.753014
 C         0.973432        -0.306482        -2.150304
 H        -0.627741         0.810165        -0.272071
 H        -0.342603        -0.718118         0.499359
 H         0.398876         0.590431         1.379331
 H         3.399928         0.538331        -0.393999
 H         2.834598         0.712551        -3.063696
 H         3.268210        -1.236628        -4.166108
 H         3.793374        -1.958483        -2.492438
 H        -0.161799        -1.872293        -3.631690
 H         0.133932        -2.374655        -1.877134
 H         0.415831         0.507880        -2.491327
