19
Iteration:  4869charge 0 multiplicity 1
 C         0.293903         0.321153         0.386935
 C         1.235631        -0.111113        -0.709565
 O         1.675669        -1.565330        -0.382057
 C         2.657157        -0.474700        -0.659797
 C         2.807502        -0.275112        -2.134889
 C         3.041346        -1.580415        -2.862221
 O         1.778341        -2.153137        -3.309716
 C         0.663583        -1.305348        -3.044405
 C         1.182577        -0.030172        -2.231255
 H         0.546243        -0.303117         1.302340
 H         0.366782         1.382400         0.669684
 H        -0.744988         0.127867         0.128120
 H         3.480537        -0.443827         0.101724
 H         3.487143         0.613181        -2.377114
 H         3.681237        -1.335103        -3.784948
 H         3.400270        -2.418361        -2.298063
 H         0.164021        -0.927997        -3.869139
 H        -0.052741        -1.742689        -2.296035
 H         0.761703         0.877438        -2.683975
