19
Iteration:  1062charge 0 multiplicity 1
 C         0.386621         0.599701         0.336396
 C         1.191665        -0.201850        -0.561243
 O         2.208713        -1.109727        -0.007269
 C         2.615795         0.021106        -0.800555
 C         2.445704        -0.303122        -2.314137
 C         2.940523        -1.551459        -3.092661
 O         1.769342        -2.102326        -3.681671
 C         0.796185        -2.029164        -2.734037
 C         0.879197        -0.608612        -2.055469
 H        -0.022088         1.477485        -0.120293
 H        -0.551583         0.038791         0.762551
 H         1.052177         0.968434         1.077005
 H         3.273437         0.761406        -0.187285
 H         2.453743         0.574968        -2.953413
 H         3.618350        -1.292509        -3.897451
 H         3.426389        -2.359615        -2.578779
 H        -0.134378        -2.191799        -3.147996
 H         0.900134        -2.825132        -1.982934
 H         0.215232        -0.000237        -2.522855
