19
Iteration:   345
 C         0.222657         0.214689         0.384506
 C         1.187325        -0.109496        -0.705595
 O         2.242378        -1.102884        -0.194951
 C         2.664863         0.042813        -0.856293
 C         2.505665        -0.246241        -2.394628
 C         2.955811        -1.565546        -3.003976
 O         1.762734        -2.269429        -3.386437
 C         0.668756        -1.796951        -2.617068
 C         1.031851        -0.390440        -2.207530
 H         0.145580         1.264902         0.361425
 H        -0.839220        -0.302549         0.468109
 H         0.640691        -0.027517         1.319476
 H         3.371666         0.824948        -0.509423
 H         2.815205         0.648623        -2.919834
 H         3.566806        -1.359945        -3.833283
 H         3.639748        -2.213151        -2.358316
 H        -0.177471        -1.736320        -3.238121
 H         0.434008        -2.359242        -1.665719
 H         0.428501         0.307812        -2.751447
