19
Iteration:   820charge 0 multiplicity 1
 C         0.182643         0.193380         0.311414
 C         1.310031        -0.129535        -0.620208
 O         2.205960        -1.253194        -0.291704
 C         2.747988        -0.017131        -0.957829
 C         2.513759        -0.117832        -2.494887
 C         2.926480        -1.406607        -3.224423
 O         1.848823        -2.450923        -2.913879
 C         0.620697        -1.684344        -2.668932
 C         0.952224        -0.305508        -2.106438
 H        -0.132804         1.149657         0.139986
 H        -0.596747        -0.495151        -0.010761
 H         0.341791         0.029006         1.323211
 H         3.488147         0.669942        -0.495613
 H         2.866951         0.833348        -2.938075
 H         2.978395        -1.180486        -4.239184
 H         3.794580        -1.786932        -2.693797
 H        -0.070122        -1.556513        -3.565822
 H         0.152360        -2.222450        -1.810413
 H         0.213207         0.303058        -2.503601
