19
Iteration:  2016charge 0 multiplicity 1
 C         0.366154         0.496207         0.405965
 C         1.137101        -0.237266        -0.675668
 O         2.071921        -1.290981        -0.226377
 C         2.671502        -0.107264        -0.864738
 C         2.473121        -0.169981        -2.362607
 C         2.926902        -1.295705        -3.208933
 O         1.984948        -2.387977        -3.090805
 C         0.686377        -1.831255        -2.768643
 C         0.917295        -0.414455        -2.185733
 H         0.038095         1.569065         0.318262
 H        -0.676415         0.065737         0.740874
 H         1.033896         0.352267         1.178548
 H         3.389833         0.553508        -0.295629
 H         2.920262         0.736078        -2.722532
 H         2.916405        -1.033343        -4.285064
 H         3.882420        -1.758311        -2.992277
 H        -0.038626        -1.740505        -3.587120
 H         0.319841        -2.529261        -1.925523
 H         0.115071         0.226829        -2.655040
