19
Iteration:   583
 C         0.352021         0.140659         0.453605
 C         1.239503        -0.316038        -0.715093
 O         2.372027        -1.156397        -0.303269
 C         2.616576         0.060574        -0.974310
 C         2.410488        -0.111259        -2.532033
 C         2.888805        -1.517763        -2.883348
 O         1.771266        -2.395754        -2.778080
 C         0.619896        -1.567345        -3.026053
 C         0.955587        -0.352766        -2.262659
 H        -0.025893         1.280890         0.445596
 H        -0.441655        -0.428817         0.465954
 H         0.732071        -0.146543         1.397636
 H         3.120161         0.774246        -0.379226
 H         2.780264         0.730692        -3.008599
 H         3.151118        -1.547126        -3.961785
 H         3.770938        -1.891974        -2.369148
 H         0.471706        -1.392569        -4.136457
 H        -0.238982        -2.182304        -2.693498
 H         0.348083         0.474591        -2.398493
