19
Iteration:  3839charge 0 multiplicity 1
 C         0.356001         0.415581         0.465054
 C         1.173565        -0.191642        -0.690539
 O         1.930997        -1.453535        -0.182406
 C         2.672948        -0.297318        -0.665659
 C         2.650868        -0.352569        -2.222490
 C         2.969974        -1.634969        -2.846430
 O         1.820586        -1.928672        -3.659206
 C         0.633467        -1.514098        -2.858375
 C         1.061182        -0.255810        -2.266090
 H        -0.456995         1.171487        -0.001606
 H        -0.168161        -0.346522         1.082196
 H         1.038313         0.935937         1.061036
 H         3.417861        -0.009361        -0.039714
 H         3.183523         0.463520        -2.688454
 H         3.772644        -1.595818        -3.546460
 H         3.096390        -2.530956        -2.110217
 H        -0.120444        -1.495276        -3.560496
 H         0.298102        -2.331802        -2.215617
 H         0.639309         0.700951        -2.743320
