19
Iteration:  2040charge 0 multiplicity 1
 C         0.409030         0.421912         0.414854
 C         1.168030        -0.210976        -0.691838
 O         1.926472        -1.380459        -0.305470
 C         2.659193        -0.124678        -0.832027
 C         2.454858        -0.155101        -2.426313
 C         2.977130        -1.285619        -3.297316
 O         1.996438        -2.347525        -3.019344
 C         0.731151        -1.790770        -2.593562
 C         0.951689        -0.352813        -2.241559
 H        -0.238548         1.286140        -0.099558
 H        -0.465332        -0.111748         0.877410
 H         1.058667         0.815184         1.156058
 H         3.519721         0.365878        -0.163113
 H         2.512112         0.942325        -2.701077
 H         2.994353        -1.224035        -4.370587
 H         3.943032        -1.714884        -2.958716
 H        -0.032651        -1.864582        -3.345374
 H         0.425382        -2.342997        -1.608665
 H         0.253352         0.334106        -2.802486
