19
Iteration:  2511
 C         0.245262         0.077800         0.386886
 C         1.243626        -0.146944        -0.687671
 O         2.264827        -1.127029        -0.270205
 C         2.698007         0.038672        -0.890711
 C         2.527534        -0.157851        -2.473640
 C         2.901230        -1.491601        -3.101463
 O         1.834018        -2.405630        -2.866446
 C         0.578816        -1.610051        -2.869647
 C         0.967560        -0.339189        -2.175552
 H        -0.443377         0.931219         0.173796
 H        -0.410517        -0.801356         0.479330
 H         0.777498         0.011797         1.399043
 H         3.339779         0.656672        -0.442896
 H         2.686787         0.796491        -3.029531
 H         3.101964        -1.473793        -4.215521
 H         3.803227        -1.911750        -2.601855
 H         0.265950        -1.426551        -3.966238
 H        -0.128246        -2.297009        -2.496594
 H         0.437029         0.461605        -2.586091
