19
Iteration:  2251charge 0 multiplicity 1
 C         0.245506         0.301663         0.257361
 C         1.200973        -0.286614        -0.652900
 O         2.232918        -1.179663        -0.195800
 C         2.665858        -0.016853        -0.835516
 C         2.524456        -0.132930        -2.401909
 C         2.920030        -1.440731        -3.185052
 O         1.824237        -2.375684        -3.110047
 C         0.652580        -1.690299        -2.694022
 C         1.008176        -0.435297        -2.131410
 H        -0.557476         0.896661        -0.358748
 H        -0.306876        -0.363994         0.809223
 H         0.829759         0.830469         1.098764
 H         3.298964         0.537576        -0.360459
 H         2.762514         0.841095        -2.868227
 H         3.077902        -0.916577        -4.220175
 H         3.819319        -1.960138        -2.802716
 H        -0.158994        -1.614207        -3.527038
 H         0.235540        -2.424266        -1.871926
 H         0.429342         0.337589        -2.505610
