19
Iteration:  3831charge 0 multiplicity 1
 C         0.391301         0.425166         0.442121
 C         1.207851        -0.154987        -0.630827
 O         1.877152        -1.436011        -0.186410
 C         2.622763        -0.338149        -0.676547
 C         2.622930        -0.329773        -2.214284
 C         2.954357        -1.596892        -2.877369
 O         1.831490        -1.964119        -3.686808
 C         0.593124        -1.621178        -2.924484
 C         1.156269        -0.242903        -2.177290
 H        -0.191817         1.268597         0.075115
 H        -0.232105        -0.339382         0.910355
 H         1.048871         0.951932         1.144802
 H         3.416773         0.108522        -0.024948
 H         3.223514         0.545349        -2.521111
 H         3.822087        -1.485079        -3.566971
 H         3.228510        -2.279363        -2.134678
 H        -0.321850        -1.368912        -3.575415
 H         0.446110        -2.414937        -2.109215
 H         0.577567         0.592273        -2.766914
