19
Iteration:  1676
 C         0.278717         0.376110         0.380184
 C         1.238600        -0.225230        -0.543816
 O         2.311155        -1.100533        -0.119153
 C         2.657048         0.118990        -0.877175
 C         2.475374        -0.295173        -2.348108
 C         2.909577        -1.692057        -2.903111
 O         1.789975        -2.061507        -3.661643
 C         0.648407        -1.867873        -2.793927
 C         0.971184        -0.513645        -2.067366
 H        -0.516035         0.978253        -0.143104
 H        -0.241264        -0.450335         0.954982
 H         0.776436         0.937371         1.247371
 H         3.170201         1.054914        -0.379086
 H         2.633125         0.447041        -3.087309
 H         3.854957        -1.815397        -3.560847
 H         2.900510        -2.266919        -1.940635
 H        -0.325028        -1.852040        -3.419727
 H         0.552855        -2.697592        -2.008128
 H         0.387017         0.326221        -2.571805
