19
Iteration:   204charge 0 multiplicity 1
 C         0.319339         0.355947         0.325762
 C         1.220340        -0.265146        -0.653422
 O         2.152070        -1.283627        -0.284867
 C         2.682343        -0.053987        -0.841433
 C         2.564584        -0.221349        -2.346264
 C         2.915282        -1.360606        -3.204927
 O         1.867817        -2.353173        -2.948918
 C         0.597437        -1.701708        -2.778461
 C         0.924050        -0.344340        -2.174150
 H        -0.538207         0.646223        -0.219712
 H         0.109804        -0.432836         1.216989
 H         0.757736         1.182097         0.821247
 H         3.247944         0.555441        -0.210285
 H         2.798887         0.690371        -2.911388
 H         2.967659        -1.049841        -4.298297
 H         3.918435        -1.970263        -3.039143
 H         0.308535        -1.545912        -3.896011
 H        -0.021868        -2.425070        -2.179812
 H         0.403558         0.497666        -2.683470
