19
Iteration:  4253charge 0 multiplicity 1
 C         0.183378         0.494536         0.432990
 C         1.160794        -0.221323        -0.593343
 O         1.808332        -1.513965        -0.435359
 C         2.718754        -0.434621        -0.613666
 C         2.786543        -0.312604        -2.164770
 C         3.074852        -1.651890        -2.924652
 O         1.752133        -2.024950        -3.584792
 C         0.660269        -1.372853        -2.833320
 C         1.187660        -0.194475        -2.171514
 H         0.168761         0.317763         1.597183
 H         0.449972         1.508373         0.195408
 H        -0.816128         0.302399         0.153842
 H         3.371061        -0.210627         0.244637
 H         3.267648         0.660096        -2.540874
 H         3.844390        -1.587989        -3.713954
 H         3.454880        -2.368324        -2.076793
 H        -0.292782        -1.374483        -3.504044
 H         0.429262        -2.154117        -2.208503
 H         0.827576         0.716960        -2.652452
