19
Iteration:  3608charge 0 multiplicity 1
 C         0.116334         0.266113         0.395981
 C         1.258462        -0.174691        -0.567566
 O         2.011994        -1.306925        -0.230522
 C         2.777026        -0.175607        -0.699257
 C         2.715429        -0.261689        -2.310156
 C         3.012617        -1.616105        -3.062426
 O         1.697655        -2.203528        -3.443329
 C         0.562379        -1.452724        -2.816124
 C         1.211918        -0.285532        -2.202147
 H        -0.184423        -0.493954         1.108095
 H         0.245259         1.070783         1.086848
 H        -0.632024         0.430704        -0.307921
 H         3.519354         0.276631         0.096567
 H         3.056088         0.660518        -2.809251
 H         3.602571        -1.577288        -3.965572
 H         3.453410        -2.310911        -2.395297
 H        -0.205894        -1.215846        -3.499922
 H         0.106196        -2.151059        -2.116892
 H         0.783134         0.752159        -2.511102
