19
Iteration:  2103
 C         0.315525         0.298037         0.357838
 C         1.205277        -0.256763        -0.647187
 O         2.171141        -1.257428        -0.128179
 C         2.611757        -0.054082        -0.861572
 C         2.552760        -0.132790        -2.369369
 C         2.897375        -1.399825        -3.297632
 O         1.876093        -2.388903        -2.958824
 C         0.647213        -1.720301        -2.809188
 C         0.979496        -0.363219        -2.215875
 H        -0.119068         1.021628        -0.258684
 H        -0.612076        -0.328830         0.796148
 H         0.855893         0.762996         1.156075
 H         3.326877         0.791456        -0.368434
 H         2.892383         0.753818        -2.860969
 H         2.852157        -0.952552        -4.357149
 H         3.902623        -1.824028        -3.240737
 H         0.125387        -1.475239        -3.811848
 H         0.128903        -2.516295        -2.141635
 H         0.331829         0.516121        -2.615783
