19
Iteration:  3497charge 0 multiplicity 1
 C         0.273826         0.524739         0.390774
 C         1.189336        -0.240110        -0.544420
 O         1.993643        -1.340327        -0.158644
 C         2.669346        -0.130812        -0.697785
 C         2.591461        -0.327947        -2.260292
 C         3.054812        -1.593906        -3.081006
 O         1.769365        -2.013217        -3.710625
 C         0.678270        -1.771690        -2.747945
 C         1.058980        -0.404778        -2.083008
 H        -0.707087         0.823965        -0.072817
 H         0.060326        -0.061741         1.257750
 H         0.813774         1.518550         0.604251
 H         3.321467         0.382836        -0.025427
 H         2.887315         0.635716        -2.723830
 H         3.793057        -1.465910        -3.882441
 H         3.404598        -2.368967        -2.378631
 H        -0.185933        -1.610666        -3.260579
 H         0.506613        -2.549994        -2.026691
 H         0.648564         0.558021        -2.540273
