19
Iteration:  4061charge 0 multiplicity 1
 C         0.211657         0.632832         0.250655
 C         1.202426        -0.230482        -0.528211
 O         1.790810        -1.577279        -0.168897
 C         2.666189        -0.411597        -0.547916
 C         2.795970        -0.416050        -2.145000
 C         3.064343        -1.645298        -3.110860
 O         1.741772        -1.737760        -3.753847
 C         0.672960        -1.569720        -2.770688
 C         1.183816        -0.312959        -2.066349
 H         0.320811         0.458749         1.301286
 H         0.312080         1.731281         0.014344
 H        -0.782450         0.163846         0.044994
 H         3.356151        -0.258985         0.203114
 H         3.227330         0.503523        -2.467372
 H         3.714138        -1.512439        -4.032929
 H         3.308064        -2.649431        -2.597142
 H        -0.229479        -1.402001        -3.317890
 H         0.678686        -2.346133        -2.040561
 H         0.942659         0.666688        -2.562619
