19
Iteration:  2368
 C         0.250960         0.398869         0.333948
 C         1.253509        -0.182421        -0.603738
 O         2.077322        -1.285213        -0.278601
 C         2.718458        -0.184162        -0.966864
 C         2.419867        -0.154890        -2.411461
 C         2.905444        -1.293707        -3.300138
 O         1.990212        -2.378187        -2.968413
 C         0.717452        -1.817297        -2.634179
 C         0.926840        -0.295672        -2.119386
 H         0.027957         1.446062         0.141186
 H        -0.697290        -0.088310         0.194692
 H         0.470138         0.116439         1.389179
 H         3.644596         0.203070        -0.445461
 H         2.705595         0.810221        -2.897401
 H         2.850854        -1.134504        -4.383526
 H         3.912371        -1.644423        -3.014175
 H         0.026123        -1.867860        -3.455969
 H         0.330508        -2.449841        -1.802368
 H         0.292879         0.441559        -2.571403
