19
Iteration:  1563
 C         0.261005         0.406446         0.356725
 C         1.236570        -0.203313        -0.614511
 O         2.115286        -1.314864        -0.385479
 C         2.708556        -0.142779        -0.877287
 C         2.465744        -0.156448        -2.415409
 C         2.936355        -1.331512        -3.159530
 O         1.909504        -2.368362        -3.015532
 C         0.656967        -1.764189        -2.653429
 C         0.991901        -0.330039        -2.145661
 H         0.189079         1.445478         0.074191
 H        -0.768169        -0.053106         0.168565
 H         0.507693         0.264480         1.447113
 H         3.409965         0.374661        -0.322859
 H         2.727460         0.745797        -2.911591
 H         2.978396        -1.014896        -4.277763
 H         3.936883        -1.703486        -2.927720
 H        -0.122022        -1.849659        -3.484571
 H         0.326520        -2.469626        -1.825234
 H         0.286994         0.318737        -2.637347
