19
Iteration:   388charge 0 multiplicity 1
 C         0.220824         0.492426         0.284850
 C         1.253177        -0.180183        -0.581645
 O         2.310578        -1.080316        -0.070715
 C         2.699826        -0.038111        -0.856196
 C         2.438033        -0.212316        -2.327252
 C         2.840042        -1.552195        -3.011752
 O         1.769851        -2.130795        -3.688537
 C         0.767092        -2.000457        -2.607864
 C         0.967603        -0.552589        -2.049108
 H         0.124604         1.593137         0.274917
 H        -0.805156         0.131141        -0.224984
 H         0.178499         0.150260         1.272955
 H         3.424176         0.652022        -0.332702
 H         2.562798         0.667406        -2.922168
 H         3.636791        -1.437977        -3.722321
 H         3.225390        -2.207334        -2.197402
 H        -0.180701        -2.019665        -3.030483
 H         0.991375        -2.815126        -1.873629
 H         0.271961         0.065790        -2.546315
