19
Iteration:  1299charge 0 multiplicity 1
 C         0.310255         0.439273         0.397109
 C         1.208133        -0.176519        -0.637683
 O         2.072116        -1.337947        -0.344534
 C         2.651180        -0.096200        -0.812783
 C         2.474907        -0.203108        -2.439141
 C         3.026098        -1.355626        -3.154869
 O         1.863098        -2.315041        -3.168005
 C         0.681999        -1.813366        -2.598388
 C         0.939576        -0.318273        -2.216664
 H        -0.474316         1.282563         0.037518
 H        -0.356517        -0.427723         0.889125
 H         0.936416         0.783930         1.183410
 H         3.644047         0.216644        -0.158078
 H         2.850001         0.714686        -2.766634
 H         3.288257        -1.189717        -4.260746
 H         3.926179        -1.920140        -2.690947
 H        -0.222548        -1.942632        -3.234313
 H         0.520295        -2.315724        -1.683906
 H         0.365231         0.400180        -2.798587
