19
Iteration:  2776charge 0 multiplicity 1
 C         0.372997         0.172291         0.404993
 C         1.183860        -0.315078        -0.713839
 O         2.349634        -1.235707        -0.322048
 C         2.575755         0.093006        -0.897052
 C         2.469719        -0.091677        -2.446640
 C         2.944660        -1.557612        -2.948767
 O         1.788686        -2.384119        -2.872674
 C         0.595580        -1.624850        -2.953850
 C         0.933276        -0.302321        -2.236039
 H        -0.132651         1.169092         0.222789
 H        -0.411872        -0.550285         0.431801
 H         0.984272         0.281784         1.323168
 H         3.021457         0.818662        -0.186624
 H         2.810636         0.876313        -2.925293
 H         3.125330        -1.339465        -4.002793
 H         3.854002        -2.026360        -2.449526
 H         0.299690        -1.279095        -4.006663
 H        -0.146757        -2.236574        -2.568418
 H         0.426425         0.582075        -2.448738
