19
Iteration:  2727
 C         0.227070         0.179972         0.412647
 C         1.182245        -0.118664        -0.654123
 O         2.160019        -1.260989        -0.396286
 C         2.687157         0.010728        -0.883048
 C         2.568439        -0.144553        -2.487085
 C         2.958555        -1.471405        -3.171674
 O         1.905344        -2.446326        -2.911617
 C         0.658811        -1.651908        -2.719217
 C         0.900123        -0.276432        -2.127044
 H         0.021866         1.192354         0.468654
 H        -0.739124        -0.330608         0.209814
 H         0.795683        -0.063353         1.281644
 H         3.382486         0.611968        -0.374259
 H         2.961143         0.697714        -2.983631
 H         3.252255        -1.240790        -4.269342
 H         3.795410        -1.893684        -2.641467
 H         0.207836        -1.365663        -3.744681
 H        -0.134263        -2.287494        -2.119718
 H         0.175625         0.529632        -2.566970
