19
Iteration:  1428charge 0 multiplicity 1
 C         0.226782         0.258098         0.382015
 C         1.209484        -0.175557        -0.621653
 O         2.157010        -1.105884        -0.190288
 C         2.686490         0.068880        -0.851323
 C         2.621105        -0.271944        -2.411606
 C         2.999325        -1.630079        -3.017371
 O         1.735798        -2.249392        -3.520146
 C         0.678010        -1.784700        -2.580876
 C         0.992195        -0.318004        -2.110002
 H        -0.512051         1.129339         0.084876
 H        -0.361574        -0.604638         0.333055
 H         0.559514         0.445243         1.380408
 H         3.320581         0.860529        -0.249307
 H         2.827187         0.603215        -3.111319
 H         3.686225        -1.427086        -3.857247
 H         3.575462        -2.391242        -2.480885
 H        -0.253827        -1.838033        -3.226290
 H         0.455545        -2.476477        -1.636673
 H         0.408345         0.501693        -2.576655
