19
Iteration:  1229charge 0 multiplicity 1
 C         0.313061         0.316238         0.365810
 C         1.243140        -0.217707        -0.636099
 O         2.153136        -1.253472        -0.199063
 C         2.650312         0.007139        -0.839937
 C         2.521512        -0.182759        -2.380184
 C         2.915580        -1.343419        -3.310943
 O         1.878607        -2.499857        -2.866516
 C         0.651870        -1.674978        -2.895211
 C         0.965975        -0.385842        -2.170240
 H         0.282176         1.548117         0.256708
 H        -0.718414         0.023906         0.234725
 H         0.676404        -0.089022         1.510511
 H         3.322025         0.487570        -0.305455
 H         2.697239         0.683616        -3.095196
 H         2.790542        -1.051091        -4.433598
 H         3.910482        -1.757435        -3.210075
 H         0.421289        -1.428005        -3.952345
 H        -0.256915        -2.143210        -2.466943
 H         0.185748         0.414027        -2.297591
