19
Iteration:  4555charge 0 multiplicity 1
 C         0.310110         0.461864         0.361872
 C         1.203805        -0.242326        -0.642224
 O         1.620793        -1.646797        -0.363849
 C         2.638567        -0.543271        -0.667417
 C         2.778562        -0.308698        -2.173345
 C         3.140989        -1.423411        -3.080018
 O         1.784200        -2.191509        -3.023019
 C         0.648722        -1.229054        -3.082561
 C         1.210528        -0.057863        -2.261230
 H         0.945724         0.413623         1.306097
 H         0.015884         1.370173         0.094336
 H        -0.488423        -0.288212         0.620358
 H         3.339834        -0.497673         0.061032
 H         3.385054         0.524711        -2.304812
 H         3.365093        -1.102482        -4.098783
 H         3.880875        -2.225036        -2.863252
 H         0.200363        -1.049783        -4.217357
 H        -0.170798        -1.659117        -2.573761
 H         0.803827         0.899945        -2.518721
