19
Iteration:    81charge 0 multiplicity 1
 C         0.186474         0.424940         0.254654
 C         1.308855        -0.200663        -0.540522
 O         2.375238        -1.154877        -0.093734
 C         2.713371         0.012359        -0.893393
 C         2.377115        -0.222931        -2.357126
 C         2.920124        -1.508797        -3.016673
 O         1.826537        -2.325132        -3.424180
 C         0.648078        -1.814322        -2.787303
 C         0.897961        -0.457495        -2.040026
 H         0.189057         1.552356         0.449987
 H        -0.721832         0.353606        -0.335230
 H         0.125945        -0.201012         1.206836
 H         3.576535         0.728401        -0.471334
 H         2.524191         0.691812        -2.971616
 H         3.477921        -1.257612        -3.959023
 H         3.440097        -2.183781        -2.253686
 H        -0.127896        -1.684291        -3.642193
 H         0.354465        -2.573661        -2.062267
 H         0.269220         0.327152        -2.336793
