19
Iteration:  1629charge 0 multiplicity 1
 C         0.266707         0.259404         0.466454
 C         1.237988        -0.107078        -0.615754
 O         2.196058        -1.087502        -0.168447
 C         2.694209         0.103116        -0.822917
 C         2.538243        -0.202674        -2.477969
 C         2.939579        -1.679722        -2.917293
 O         1.765225        -2.215133        -3.549215
 C         0.673712        -1.820429        -2.745522
 C         0.999081        -0.440811        -2.130336
 H        -0.454381         0.821085         0.027014
 H        -0.260433        -0.686814         0.832468
 H         0.661969         0.752465         1.435166
 H         3.362260         0.810129        -0.220322
 H         2.688470         0.445253        -3.304710
 H         3.671084        -1.602708        -3.742726
 H         3.247883        -2.364031        -2.134303
 H        -0.204984        -1.709005        -3.447109
 H         0.344418        -2.498337        -1.884895
 H         0.323301         0.414667        -2.398383
