19
Iteration:  4604
 C         0.274117         0.406944         0.442402
 C         1.151004        -0.232753        -0.651882
 O         1.713527        -1.519870        -0.317799
 C         2.698403        -0.516363        -0.696893
 C         2.841341        -0.285118        -2.163748
 C         3.017704        -1.552593        -2.949182
 O         1.803564        -2.171962        -3.261329
 C         0.684078        -1.278904        -3.084490
 C         1.148362        -0.098550        -2.221238
 H         0.386664        -0.218536         1.314560
 H         0.583714         1.590489         0.642102
 H        -0.786531         0.318168         0.192687
 H         3.438787        -0.145207         0.130161
 H         3.288762         0.784222        -2.409000
 H         3.463494        -1.366174        -4.003716
 H         3.698590        -2.236051        -2.376564
 H         0.340848        -0.966364        -4.099347
 H        -0.217775        -1.926003        -2.691679
 H         0.687032         0.783504        -2.762500
