19
Iteration:   403charge 0 multiplicity 1
 C         0.274897         0.539797         0.289602
 C         1.221672        -0.225118        -0.575163
 O         2.225031        -1.134809        -0.025383
 C         2.629803         0.031007        -0.885501
 C         2.456769        -0.306517        -2.409047
 C         3.015054        -1.529526        -3.032454
 O         1.732085        -2.010730        -3.650829
 C         0.782986        -2.031207        -2.601455
 C         0.906946        -0.612238        -2.043172
 H         0.462340         1.589179         0.215755
 H        -0.873341         0.323752         0.016813
 H         0.570549         0.295928         1.339273
 H         3.279846         0.764663        -0.546307
 H         2.667200         0.641323        -2.969351
 H         3.757065        -1.456326        -3.837696
 H         3.207813        -2.302062        -2.219512
 H        -0.154583        -2.446748        -3.092988
 H         1.063230        -2.774073        -1.815454
 H         0.197175         0.180097        -2.421214
