19
Iteration:  4457charge 0 multiplicity 1
 C         0.197707         0.431826         0.444063
 C         1.188341        -0.238285        -0.619933
 O         1.812288        -1.519803        -0.374257
 C         2.714584        -0.415937        -0.608071
 C         2.766580        -0.313945        -2.168315
 C         3.012969        -1.679536        -2.873287
 O         1.731615        -2.090266        -3.424434
 C         0.709405        -1.268187        -3.059090
 C         1.169587        -0.116946        -2.214266
 H         0.474854         0.004758         1.514715
 H         0.200621         1.485841         0.450734
 H        -0.887662         0.070590         0.225468
 H         3.538927        -0.222150         0.103689
 H         3.403442         0.392248        -2.630259
 H         3.654114        -1.602431        -3.807219
 H         3.536475        -2.439525        -2.230793
 H         0.333409        -0.818639        -3.924464
 H        -0.001372        -1.925241        -2.603985
 H         0.870528         0.895156        -2.370589
