19
Iteration:   208
 C         0.333774         0.317325         0.321353
 C         1.222190        -0.256108        -0.655917
 O         2.138955        -1.248482        -0.263829
 C         2.700882        -0.053086        -0.829973
 C         2.560201        -0.218960        -2.326255
 C         2.922303        -1.384562        -3.238123
 O         1.887715        -2.405399        -2.954123
 C         0.591807        -1.669858        -2.824129
 C         0.904598        -0.348144        -2.127473
 H        -0.550712         0.654643        -0.275858
 H         0.142715        -0.359876         1.120992
 H         0.732052         1.266957         0.791793
 H         3.242417         0.682493        -0.210018
 H         2.792165         0.746349        -2.791577
 H         2.901220        -1.066172        -4.319966
 H         3.867196        -1.882115        -3.154830
 H         0.240241        -1.557134        -3.827723
 H        -0.081474        -2.337623        -2.285510
 H         0.411466         0.536082        -2.607690
