19
Iteration:  2445
 C         0.298094         0.173041         0.458820
 C         1.260017        -0.269332        -0.601506
 O         2.275325        -1.162423        -0.255740
 C         2.691144         0.083215        -0.976694
 C         2.420601        -0.186877        -2.452244
 C         2.932607        -1.526264        -2.960743
 O         1.878069        -2.378994        -3.071013
 C         0.562813        -1.610175        -2.930432
 C         0.917696        -0.343311        -2.165620
 H        -0.520554         0.669713        -0.101855
 H        -0.260060        -0.604192         0.953093
 H         0.666992         0.965777         1.195586
 H         3.422423         0.627251        -0.537307
 H         2.708745         0.634966        -3.136234
 H         3.599684        -1.462600        -3.888988
 H         3.608130        -1.915581        -2.157650
 H         0.091370        -1.435865        -3.982764
 H        -0.137062        -2.270446        -2.410908
 H         0.326665         0.479559        -2.387099
