19
Iteration:  4451charge 0 multiplicity 1
 C         0.172772         0.424359         0.473621
 C         1.156371        -0.229409        -0.680485
 O         1.872705        -1.531249        -0.399875
 C         2.660995        -0.406193        -0.653618
 C         2.777791        -0.336758        -2.171955
 C         3.032510        -1.680950        -2.795920
 O         1.753483        -2.081720        -3.439997
 C         0.679175        -1.274392        -3.035542
 C         1.181364        -0.109720        -2.164849
 H         0.575047        -0.026945         1.336118
 H         0.241747         1.572941         0.474521
 H        -0.805821         0.209556         0.224799
 H         3.527843        -0.390091         0.027135
 H         3.408306         0.522849        -2.609986
 H         3.564970        -1.588894        -3.713422
 H         3.362824        -2.578815        -2.269458
 H         0.312032        -0.700633        -3.999977
 H        -0.086478        -1.936906        -2.468557
 H         0.886814         0.947182        -2.456143
