19
Iteration:  4425
 C         0.317063         0.324502         0.381278
 C         1.251816        -0.301135        -0.712507
 O         1.772303        -1.518942        -0.341822
 C         2.693061        -0.331006        -0.559620
 C         2.747478        -0.273151        -2.186820
 C         2.958942        -1.696523        -2.742732
 O         1.758271        -2.033617        -3.489913
 C         0.672307        -1.305285        -3.022319
 C         1.182557        -0.056189        -2.245004
 H         0.535387        -0.200920         1.404228
 H         0.398510         1.376653         0.418795
 H        -0.700279         0.099174        -0.082361
 H         3.280922         0.007764         0.257991
 H         3.378711         0.468091        -2.638085
 H         3.625379        -1.828786        -3.589552
 H         3.068228        -2.479398        -2.019815
 H         0.053891        -1.018683        -3.821865
 H         0.104021        -1.973030        -2.310127
 H         0.826907         0.927023        -2.500562
