19
Iteration:  1790charge 0 multiplicity 1
 C         0.372142         0.402154         0.400441
 C         1.204596        -0.186562        -0.573797
 O         2.095160        -1.279278        -0.260253
 C         2.596889        -0.019051        -0.835542
 C         2.524853        -0.116814        -2.395185
 C         2.986112        -1.386465        -3.169642
 O         1.868285        -2.364208        -3.243404
 C         0.667414        -1.826299        -2.680517
 C         0.930211        -0.422863        -2.173584
 H         0.155002         1.525557         0.158148
 H        -0.541879        -0.117644         0.397755
 H         0.764799         0.358862         1.392670
 H         3.449748         0.496177        -0.291437
 H         2.803003         0.892830        -2.941806
 H         3.265132        -1.305842        -4.210270
 H         3.713345        -1.946837        -2.516886
 H        -0.099597        -1.824431        -3.434677
 H         0.354140        -2.554548        -1.926355
 H         0.283546         0.309362        -2.663526
