19
Iteration:  2235charge 0 multiplicity 1
 C         0.171627         0.204362         0.302790
 C         1.286202        -0.140942        -0.608653
 O         2.261607        -1.209579        -0.222937
 C         2.735167         0.039186        -0.895658
 C         2.502588        -0.207546        -2.389895
 C         2.936826        -1.465717        -3.130515
 O         1.825477        -2.373764        -3.134365
 C         0.588419        -1.749423        -2.694561
 C         0.984861        -0.288826        -2.160233
 H        -0.480376         0.838369        -0.205775
 H        -0.424906        -0.808310         0.548475
 H         0.447290         0.814923         1.110579
 H         3.520404         0.771708        -0.201653
 H         2.765847         0.647204        -3.035083
 H         3.190403        -1.380954        -4.160142
 H         3.787952        -1.893761        -2.584220
 H        -0.032474        -1.742390        -3.573433
 H         0.019228        -2.332080        -1.970450
 H         0.303226         0.595737        -2.513520
