19
Iteration:  1559
 C         0.260277         0.409664         0.369368
 C         1.239951        -0.168570        -0.588585
 O         2.121928        -1.330719        -0.382468
 C         2.685141        -0.161549        -0.871523
 C         2.432236        -0.201791        -2.440401
 C         2.940104        -1.333798        -3.180539
 O         1.940067        -2.333264        -2.991918
 C         0.677253        -1.786376        -2.653587
 C         0.962037        -0.322829        -2.190872
 H         0.204191         1.536763         0.105824
 H        -0.691884         0.003816         0.240827
 H         0.509923         0.196060         1.348548
 H         3.483721         0.322281        -0.256704
 H         2.877394         0.831971        -2.893871
 H         2.738366        -1.041102        -4.178265
 H         3.925042        -1.732843        -2.898257
 H         0.000365        -1.705156        -3.469554
 H         0.282142        -2.512239        -1.882635
 H         0.269128         0.370725        -2.675244
