19
Iteration:  1200charge 0 multiplicity 1
 C         0.303326         0.328715         0.434746
 C         1.177469        -0.274213        -0.600831
 O         2.318221        -1.223411        -0.222373
 C         2.608076        -0.042920        -0.949596
 C         2.464892        -0.133013        -2.399194
 C         3.004284        -1.443727        -3.081177
 O         1.829771        -2.433138        -2.995712
 C         0.599156        -1.678786        -2.941028
 C         0.912711        -0.339701        -2.225094
 H         0.290237         1.416815         0.465173
 H        -0.701505        -0.020215         0.245000
 H         0.655656         0.101013         1.397197
 H         3.384001         0.663665        -0.440027
 H         2.804442         0.728794        -2.935486
 H         3.362556        -1.295092        -4.081026
 H         3.805786        -2.008351        -2.508094
 H         0.165616        -1.484592        -3.961153
 H        -0.170178        -2.200733        -2.414439
 H         0.151089         0.470176        -2.352397
