19
Iteration:  3132charge 0 multiplicity 1
 C         0.194714         0.233047         0.353844
 C         1.184364        -0.142189        -0.639558
 O         2.231538        -1.236096        -0.173905
 C         2.705748        -0.037339        -0.811029
 C         2.580269        -0.227660        -2.336954
 C         2.909685        -1.493192        -3.110372
 O         1.814298        -2.336884        -3.214969
 C         0.599151        -1.656864        -2.802839
 C         1.043585        -0.314157        -2.229738
 H        -0.633829        -0.354053         0.354299
 H         0.606723         0.168102         1.392205
 H        -0.118013         1.351129         0.403847
 H         3.446093         0.494230        -0.341009
 H         2.825436         0.678563        -2.873376
 H         3.221175        -1.310541        -4.115445
 H         3.735704        -2.129439        -2.641680
 H        -0.090142        -1.518158        -3.755871
 H         0.117045        -2.271558        -2.073760
 H         0.500205         0.588591        -2.434219
