19
Iteration:  2410charge 0 multiplicity 1
 C         0.243663         0.230252         0.354294
 C         1.252119        -0.242987        -0.629759
 O         2.240673        -1.113492        -0.188008
 C         2.659479         0.083406        -0.855628
 C         2.539594        -0.235012        -2.319826
 C         2.865927        -1.460948        -3.178784
 O         1.862071        -2.431080        -3.146961
 C         0.566916        -1.696347        -2.769401
 C         1.000365        -0.377557        -2.174325
 H        -0.225711         1.031355        -0.133232
 H        -0.470609        -0.660190         0.759176
 H         0.741240         0.569930         1.264697
 H         3.406730         0.792546        -0.309953
 H         2.930367         0.630635        -2.849464
 H         2.932220        -0.966579        -4.231857
 H         3.813850        -1.991179        -2.987964
 H         0.047831        -1.662470        -3.846025
 H         0.127035        -2.330774        -2.100077
 H         0.470058         0.557637        -2.544306
