19
Iteration:  1075charge 0 multiplicity 1
 C         0.318886         0.543336         0.326848
 C         1.217505        -0.295173        -0.565566
 O         2.214711        -1.099732        -0.005144
 C         2.643876         0.039357        -0.802889
 C         2.412228        -0.303340        -2.390877
 C         2.986864        -1.575150        -3.066472
 O         1.763564        -2.087915        -3.729738
 C         0.671798        -1.961658        -2.605051
 C         0.989944        -0.587369        -2.077995
 H        -0.220848         1.172193        -0.458451
 H        -0.407813        -0.088845         0.862180
 H         0.797617         1.142949         1.184005
 H         3.330460         0.806745        -0.427324
 H         2.703822         0.584421        -2.998493
 H         3.722072        -1.395145        -3.904196
 H         3.329210        -2.150241        -2.185187
 H        -0.252274        -2.161533        -3.093552
 H         0.999276        -2.654453        -1.851191
 H         0.400244         0.301884        -2.423113
