19
Iteration:    16charge 0 multiplicity 1
 C         0.226936         0.376598         0.504930
 C         1.190759        -0.078673        -0.622194
 O         2.115858        -1.099178        -0.169480
 C         2.680952         0.060151        -1.026074
 C         2.467679        -0.218353        -2.504881
 C         3.031571        -1.621201        -2.922219
 O         1.814912        -2.209555        -3.573090
 C         0.781954        -1.928504        -2.536578
 C         0.903237        -0.425583        -2.169849
 H         0.948735         0.828740         1.281883
 H        -0.676433         0.947634         0.417467
 H        -0.231196        -0.623238         0.892067
 H         3.762804         0.253040        -0.596040
 H         2.756621         0.617147        -3.174714
 H         3.860454        -1.598184        -3.647147
 H         3.159020        -2.151308        -1.905550
 H        -0.196023        -2.162385        -3.043878
 H         1.073391        -2.485485        -1.653648
 H         0.198161         0.226416        -2.613327
