19
Iteration:  1047
 C         0.368648         0.695584         0.451073
 C         1.159256        -0.188117        -0.582472
 O         2.146045        -1.122690        -0.045421
 C         2.627372        -0.064486        -0.875297
 C         2.422983        -0.294329        -2.338495
 C         2.987555        -1.459688        -3.117927
 O         1.843053        -2.106334        -3.712853
 C         0.713753        -2.110866        -2.610383
 C         0.929801        -0.661454        -2.078490
 H         0.186941         1.701671         0.042567
 H        -0.586275         0.203763         0.772098
 H         0.914899         0.703644         1.399039
 H         3.366170         0.632327        -0.581269
 H         2.711886         0.667602        -2.784746
 H         3.665892        -1.200857        -3.947579
 H         3.553435        -2.087061        -2.393000
 H        -0.294904        -2.212309        -3.270958
 H         0.843497        -2.963054        -1.906379
 H         0.246581         0.094091        -2.611378
