19
Iteration:  3824charge 0 multiplicity 1
 C         0.411026         0.478807         0.424384
 C         1.215188        -0.163367        -0.564820
 O         1.817005        -1.410293        -0.203462
 C         2.645892        -0.362544        -0.673800
 C         2.658889        -0.265497        -2.176199
 C         2.973871        -1.599795        -2.959430
 O         1.797825        -2.003302        -3.708890
 C         0.653349        -1.672584        -2.941052
 C         1.107111        -0.260641        -2.126448
 H        -0.156889         1.299248         0.063209
 H        -0.343512        -0.232624         0.797521
 H         1.020108         0.729547         1.398402
 H         3.403662         0.209529         0.015657
 H         3.100139         0.686040        -2.574085
 H         3.852766        -1.472276        -3.644306
 H         3.276512        -2.348106        -2.139921
 H        -0.238050        -1.438738        -3.624660
 H         0.446175        -2.410237        -2.181479
 H         0.754872         0.614320        -2.550424
