19
Iteration:   539charge 0 multiplicity 1
 C         0.229742         0.119228         0.431788
 C         1.254462        -0.109119        -0.637002
 O         2.266548        -1.143024        -0.250345
 C         2.712786         0.020123        -0.917223
 C         2.528119        -0.141776        -2.467605
 C         2.904395        -1.516178        -3.065340
 O         1.764951        -2.418506        -3.005110
 C         0.627159        -1.680096        -2.838862
 C         1.001405        -0.328318        -2.202270
 H        -0.659243         0.833811        -0.046907
 H        -0.112816        -0.768543         0.786542
 H         0.546948         0.711263         1.313825
 H         3.408591         0.765113        -0.611574
 H         2.642874         0.727049        -3.060786
 H         3.398637        -1.390555        -4.144499
 H         3.609703        -2.070972        -2.411028
 H         0.073939        -1.505434        -3.777809
 H        -0.048669        -2.306564        -2.218073
 H         0.494771         0.493518        -2.604165
