19
Iteration:  2568
 C         0.277512         0.278833         0.278859
 C         1.249422        -0.256182        -0.638763
 O         2.139675        -1.294916        -0.255585
 C         2.698570        -0.015600        -0.847707
 C         2.473566        -0.122826        -2.419818
 C         2.900518        -1.350988        -3.249823
 O         1.930289        -2.359599        -2.944071
 C         0.668120        -1.755343        -2.687599
 C         0.894316        -0.326442        -2.221323
 H         0.139638         1.450751         0.234026
 H        -0.617854        -0.192577         0.090455
 H         0.596594         0.285079         1.366639
 H         3.628087         0.435167        -0.373233
 H         2.812746         0.893749        -2.834730
 H         2.974763        -1.240647        -4.377614
 H         3.899918        -1.716081        -2.836364
 H        -0.012557        -1.960157        -3.573835
 H         0.319450        -2.365670        -1.787706
 H         0.147867         0.331344        -2.499429
