19
Iteration:  2067
 C         0.277985         0.440207         0.431132
 C         1.228522        -0.071844        -0.628143
 O         2.008667        -1.366995        -0.349027
 C         2.704819        -0.239363        -0.897755
 C         2.497009        -0.143784        -2.418991
 C         2.917267        -1.297246        -3.271699
 O         2.018640        -2.383624        -2.993769
 C         0.726765        -1.844294        -2.643469
 C         0.919317        -0.278721        -2.151439
 H        -0.422149         0.983595        -0.182395
 H        -0.419212        -0.308252         0.756940
 H         0.587985         1.167387         1.344856
 H         3.555394         0.051459        -0.468196
 H         2.682268         0.888277        -2.692130
 H         2.773169        -1.123989        -4.327977
 H         3.917323        -1.684254        -3.070664
 H         0.026258        -1.843901        -3.551593
 H         0.293708        -2.447201        -1.939508
 H         0.264304         0.410824        -2.641441
