19
Iteration:  1731
 C         0.265406         0.391510         0.349323
 C         1.192467        -0.209207        -0.625502
 O         2.132736        -1.193056        -0.200622
 C         2.670040        -0.039444        -0.797931
 C         2.525982        -0.205083        -2.391959
 C         2.964503        -1.427926        -3.115776
 O         1.793024        -2.282510        -3.436860
 C         0.711403        -1.843428        -2.567833
 C         0.988643        -0.423206        -2.140199
 H         0.066966         1.383940         0.071937
 H        -0.668812        -0.173333         0.501349
 H         0.808973         0.341130         1.290912
 H         3.399261         0.510655        -0.215952
 H         2.814548         0.547908        -3.052264
 H         3.424584        -1.157219        -4.108208
 H         3.822500        -1.961005        -2.716886
 H        -0.296521        -1.762340        -3.052277
 H         0.631090        -2.464428        -1.621155
 H         0.311150         0.296487        -2.653401
