19
Iteration:  2802
 C         0.199475         0.138064         0.486131
 C         1.203512        -0.276938        -0.634290
 O         2.317295        -1.099912        -0.219568
 C         2.727244         0.102160        -0.954920
 C         2.528122        -0.154279        -2.462933
 C         2.915684        -1.561211        -3.044477
 O         1.784379        -2.438187        -2.997478
 C         0.593875        -1.595424        -2.974289
 C         0.981866        -0.348309        -2.170771
 H        -0.587172         0.957188         0.143073
 H        -0.362781        -0.816652         0.820440
 H         0.708642         0.643327         1.294669
 H         3.480594         0.605199        -0.381675
 H         2.806517         0.753276        -2.942028
 H         3.212467        -1.449010        -4.077939
 H         3.707051        -1.953561        -2.467930
 H         0.393602        -1.203711        -3.916447
 H        -0.270079        -2.298690        -2.685058
 H         0.442398         0.591971        -2.467769
