19
Iteration:  1045
 C         0.366321         0.685923         0.462992
 C         1.153640        -0.185698        -0.578248
 O         2.136722        -1.124541        -0.049715
 C         2.633859        -0.069179        -0.874483
 C         2.409381        -0.299312        -2.355236
 C         2.994491        -1.436155        -3.119093
 O         1.850781        -2.111132        -3.702879
 C         0.711481        -2.107727        -2.613364
 C         0.940290        -0.665063        -2.076044
 H         0.191343         1.754993         0.044577
 H        -0.554064         0.278152         0.691441
 H         0.942384         0.714739         1.467090
 H         3.354010         0.577183        -0.555343
 H         2.697231         0.662797        -2.857841
 H         3.728199        -1.235916        -3.974009
 H         3.579936        -2.135567        -2.412283
 H        -0.375291        -2.227636        -3.200915
 H         0.853968        -2.944581        -1.887165
 H         0.214598         0.127966        -2.669638
