19
Iteration:  3737charge 0 multiplicity 1
 C         0.205984         0.598428         0.348575
 C         1.222691        -0.196663        -0.521602
 O         1.953689        -1.419660        -0.129038
 C         2.695074        -0.415210        -0.639782
 C         2.654748        -0.350434        -2.193173
 C         2.976840        -1.599957        -3.103428
 O         1.766757        -1.894169        -3.672792
 C         0.696527        -1.645463        -2.756481
 C         1.070906        -0.300787        -2.215941
 H         0.783955         1.079983         1.120668
 H        -0.488017         1.131154        -0.314124
 H        -0.307732        -0.206474         1.068619
 H         3.727392        -0.014876        -0.172199
 H         3.312717         0.473259        -2.591666
 H         3.681052        -1.362215        -3.954067
 H         3.394823        -2.599333        -2.648420
 H        -0.219166        -1.732562        -3.353796
 H         0.756080        -2.406360        -2.017622
 H         0.496884         0.458657        -2.563673
