19
Iteration:  3954
 C         0.292812         0.327423         0.361817
 C         1.222397        -0.229432        -0.639842
 O         1.855870        -1.453910        -0.237817
 C         2.718834        -0.340954        -0.709110
 C         2.624600        -0.314607        -2.227481
 C         3.017551        -1.684381        -2.850650
 O         1.766472        -1.935467        -3.571603
 C         0.667082        -1.420950        -2.879732
 C         1.148384        -0.197764        -2.183207
 H        -0.256868        -0.410388         0.747767
 H         0.785365         0.897434         1.160467
 H        -0.418419         1.026616        -0.195423
 H         3.571392        -0.034024        -0.142268
 H         3.091841         0.554349        -2.643048
 H         3.847419        -1.679068        -3.566305
 H         3.161754        -2.381365        -2.110245
 H        -0.238627        -1.345497        -3.516853
 H         0.269606        -2.033593        -2.044728
 H         0.869294         0.837099        -2.442547
