19
Iteration:  2225
 C         0.133896         0.179175         0.354902
 C         1.306911        -0.064774        -0.576873
 O         2.265284        -1.164184        -0.264247
 C         2.729429         0.004008        -0.920001
 C         2.541527        -0.124052        -2.467451
 C         2.969341        -1.533612        -3.061474
 O         1.797800        -2.378738        -3.104883
 C         0.554541        -1.728418        -2.766839
 C         0.977848        -0.332329        -2.144457
 H        -0.588213         0.762996        -0.165805
 H        -0.372568        -0.882802         0.502366
 H         0.331013         0.437757         1.360654
 H         3.630776         0.574104        -0.378281
 H         2.860185         0.767708        -3.060458
 H         3.330528        -1.251575        -4.054860
 H         3.761353        -2.051482        -2.496502
 H        -0.168672        -1.792126        -3.585071
 H         0.208768        -2.359647        -1.885188
 H         0.391374         0.557801        -2.569171
