19
Iteration:  1297charge 0 multiplicity 1
 C         0.310790         0.415688         0.379762
 C         1.203665        -0.176331        -0.635919
 O         2.061157        -1.345079        -0.361038
 C         2.667462        -0.096968        -0.800264
 C         2.468911        -0.197462        -2.448675
 C         2.995901        -1.346407        -3.150653
 O         1.858300        -2.316656        -3.149386
 C         0.706318        -1.809010        -2.588829
 C         0.954266        -0.318752        -2.215807
 H        -0.473912         1.313069         0.030710
 H        -0.363504        -0.385501         0.828837
 H         1.007208         0.846834         1.207253
 H         3.582960         0.201178        -0.176612
 H         2.940921         0.692714        -2.802874
 H         3.307190        -1.134721        -4.239852
 H         3.894144        -1.878589        -2.709714
 H        -0.195939        -1.990663        -3.217869
 H         0.511163        -2.274001        -1.668026
 H         0.336210         0.415200        -2.792831
