19
Iteration:  3463
 C         0.175635         0.396661         0.237618
 C         1.256233        -0.213250        -0.588288
 O         2.052899        -1.281772        -0.022219
 C         2.795151        -0.195472        -0.740520
 C         2.574298        -0.298835        -2.302534
 C         2.967748        -1.630040        -3.042861
 O         1.695806        -1.913757        -3.705700
 C         0.681603        -1.773833        -2.697292
 C         1.113135        -0.326982        -2.071870
 H        -0.453752         0.978391        -0.398972
 H        -0.429116        -0.333892         0.785864
 H         0.694077         1.090698         1.075712
 H         3.542634         0.320641        -0.256465
 H         2.986992         0.652198        -2.722883
 H         3.856180        -1.834506        -3.665366
 H         2.927431        -2.320403        -2.193271
 H        -0.253635        -1.821723        -3.172259
 H         0.893801        -2.617702        -2.034850
 H         0.435876         0.398654        -2.540404
