19
Iteration:  2032
 C         0.442092         0.420834         0.404524
 C         1.168995        -0.212832        -0.692659
 O         1.987645        -1.333445        -0.252534
 C         2.561558        -0.153113        -0.828740
 C         2.503596        -0.132726        -2.404515
 C         2.931539        -1.299576        -3.244134
 O         1.986844        -2.344026        -3.050630
 C         0.700242        -1.864496        -2.633620
 C         0.932489        -0.336253        -2.269500
 H         0.080586         1.432812        -0.182892
 H        -0.329110        -0.197242         0.727345
 H         1.073523         0.736652         1.370197
 H         3.279904         0.374491        -0.196095
 H         2.645558         0.973699        -2.807706
 H         2.978092        -1.034295        -4.316329
 H         3.954606        -1.678571        -2.994943
 H         0.038488        -2.063010        -3.503639
 H         0.354024        -2.391375        -1.757482
 H         0.393239         0.485074        -2.687720
