19
Iteration:  2488
 C         0.323693         0.072821         0.500893
 C         1.209829        -0.291550        -0.666204
 O         2.262999        -1.134215        -0.290799
 C         2.616864         0.109205        -0.941386
 C         2.500615        -0.134144        -2.494846
 C         2.975782        -1.540780        -2.917460
 O         1.795892        -2.398218        -2.943114
 C         0.594511        -1.601074        -2.920337
 C         0.947220        -0.257093        -2.310255
 H        -0.447736         0.772358         0.182306
 H        -0.203560        -0.783053         1.028678
 H         0.996039         0.459332         1.310993
 H         3.208585         0.730480        -0.420248
 H         2.855648         0.660101        -3.167869
 H         3.261439        -1.492394        -4.004437
 H         3.777285        -2.045931        -2.377483
 H         0.168762        -1.633629        -3.985267
 H        -0.073012        -2.179866        -2.369859
 H         0.443622         0.616640        -2.680713
