19
Iteration:  4060charge 0 multiplicity 1
 C         0.213303         0.642839         0.244783
 C         1.198010        -0.231833        -0.519629
 O         1.796848        -1.581007        -0.171477
 C         2.662819        -0.408788        -0.549115
 C         2.794818        -0.417575        -2.136989
 C         3.074425        -1.650513        -3.114991
 O         1.736596        -1.737373        -3.752873
 C         0.669796        -1.574002        -2.774729
 C         1.178520        -0.313468        -2.070782
 H         0.321565         0.427299         1.346096
 H         0.295276         1.741362         0.025214
 H        -0.773414         0.191543         0.018384
 H         3.376754        -0.283467         0.215845
 H         3.220840         0.536445        -2.457103
 H         3.706390        -1.513255        -4.037094
 H         3.327716        -2.636754        -2.596432
 H        -0.224534        -1.374682        -3.325342
 H         0.714076        -2.364236        -2.028321
 H         0.937209         0.684662        -2.553807
