19
Iteration:  3349charge 0 multiplicity 1
 C         0.292593         0.303898         0.401308
 C         1.210751        -0.233754        -0.610451
 O         1.978809        -1.357919        -0.248301
 C         2.712047        -0.093203        -0.767506
 C         2.600882        -0.142727        -2.386043
 C         3.003638        -1.518413        -3.016261
 O         1.833131        -2.332984        -3.320456
 C         0.635211        -1.593427        -2.801954
 C         0.991482        -0.220020        -2.236553
 H         0.743849         1.110797         1.029514
 H        -0.707645         0.684182         0.032504
 H         0.192687        -0.396028         1.263116
 H         3.634032         0.091530        -0.274740
 H         3.024818         0.709356        -2.876298
 H         3.581494        -1.262213        -3.895150
 H         3.616501        -1.970572        -2.278778
 H        -0.186591        -1.319541        -3.624502
 H         0.348086        -2.347618        -2.020996
 H         0.346052         0.592116        -2.481213
