19
Iteration:  3686
 C         0.246534         0.345624         0.472385
 C         1.209683        -0.135327        -0.594752
 O         2.120633        -1.380664        -0.186033
 C         2.657215        -0.215180        -0.712331
 C         2.633140        -0.388763        -2.269391
 C         2.967785        -1.682259        -2.821291
 O         1.776883        -1.980498        -3.650043
 C         0.603949        -1.549075        -2.946717
 C         1.014642        -0.244717        -2.198570
 H         0.596861         0.045879         1.535157
 H         0.361773         1.432863         0.329325
 H        -0.742397         0.098614         0.351251
 H         3.454225         0.389953        -0.236587
 H         2.978372         0.371593        -2.941920
 H         3.808756        -1.771609        -3.462443
 H         3.029835        -2.433351        -2.078746
 H        -0.158049        -1.460959        -3.671221
 H         0.466194        -2.413325        -2.161847
 H         0.793668         0.831622        -2.678671
