19
Iteration:  2385charge 0 multiplicity 1
 C         0.182480         0.320627         0.383463
 C         1.251434        -0.129130        -0.673545
 O         2.170734        -1.236185        -0.151588
 C         2.716325        -0.106487        -0.857717
 C         2.522941        -0.137102        -2.484521
 C         2.897708        -1.373631        -3.305882
 O         1.925143        -2.395956        -3.057912
 C         0.621170        -1.734356        -2.632209
 C         0.996074        -0.413746        -2.163450
 H        -0.097065         1.373682         0.099590
 H        -0.759762        -0.453105         0.331060
 H         0.504646         0.325049         1.404906
 H         3.548469         0.472394        -0.334510
 H         2.792933         0.823676        -2.933672
 H         2.916810        -1.060409        -4.394002
 H         3.863978        -1.855450        -3.080755
 H         0.083189        -1.619104        -3.680019
 H         0.155423        -2.444941        -1.936019
 H         0.157623         0.305240        -2.535467
