19
Iteration:  2108charge 0 multiplicity 1
 C         0.294798         0.297925         0.368862
 C         1.223104        -0.261866        -0.591773
 O         2.211970        -1.239736        -0.139311
 C         2.630543        -0.016854        -0.826743
 C         2.518269        -0.164377        -2.374007
 C         2.904779        -1.404415        -3.286282
 O         1.875191        -2.404486        -2.974333
 C         0.631414        -1.705331        -2.842118
 C         0.956559        -0.368798        -2.259060
 H        -0.246436         1.126515        -0.296831
 H        -0.511752        -0.253413         0.692924
 H         0.915055         0.608862         1.263198
 H         3.188061         0.718374        -0.347515
 H         2.901023         0.810411        -2.822433
 H         2.878730        -1.012434        -4.338392
 H         3.887625        -1.909879        -3.166377
 H         0.197176        -1.536342        -3.814578
 H         0.039543        -2.338043        -2.180410
 H         0.397151         0.439244        -2.649390
