19
Iteration:   976charge 0 multiplicity 1
 C         0.224370         0.338115         0.338122
 C         1.297109        -0.123427        -0.559561
 O         2.156991        -1.188763        -0.278901
 C         2.687851        -0.036006        -0.933772
 C         2.530197        -0.199422        -2.438984
 C         2.945441        -1.463508        -3.150908
 O         1.815516        -2.325200        -3.323613
 C         0.646706        -1.840953        -2.509456
 C         0.962723        -0.360285        -2.086966
 H        -0.053509         1.334208         0.013392
 H        -0.674464        -0.358589         0.221871
 H         0.501716         0.335313         1.370852
 H         3.503157         0.560521        -0.273772
 H         2.745244         0.717431        -2.986844
 H         3.448646        -1.078898        -4.058552
 H         3.786492        -1.985116        -2.558611
 H        -0.272241        -1.967161        -3.134855
 H         0.669986        -2.591906        -1.658859
 H         0.203235         0.355915        -2.430166
