19
Iteration:  3254
 C         0.345557         0.397110         0.431694
 C         1.217915        -0.217888        -0.614369
 O         1.955780        -1.388593        -0.345088
 C         2.720462        -0.119649        -0.823791
 C         2.506594        -0.166798        -2.362342
 C         2.957920        -1.405571        -3.161061
 O         1.909748        -2.353535        -3.078215
 C         0.676868        -1.622719        -2.833865
 C         1.008116        -0.351295        -2.140760
 H         0.229193        -0.087607         1.314744
 H         0.426197         1.506451         0.543970
 H        -0.779360         0.272234         0.100906
 H         3.564388         0.227954        -0.133793
 H         2.812916         0.810883        -2.845155
 H         3.250088        -1.084931        -4.181924
 H         3.815048        -1.935866        -2.584420
 H         0.268882        -1.324704        -3.804690
 H         0.006196        -2.217877        -2.229947
 H         0.306056         0.409447        -2.577971
