19
Iteration:   670
 C         0.214537         0.328634         0.313187
 C         1.251927        -0.120555        -0.611273
 O         2.092780        -1.238568        -0.245002
 C         2.705424        -0.070969        -0.921020
 C         2.500177        -0.164703        -2.403317
 C         2.943160        -1.392735        -3.231463
 O         1.883297        -2.414230        -3.149377
 C         0.685243        -1.810362        -2.553509
 C         1.012009        -0.331525        -2.109716
 H        -0.258666         1.188955        -0.232813
 H        -0.663792        -0.400015         0.487257
 H         0.630200         0.555556         1.240544
 H         3.614187         0.364530        -0.447295
 H         2.760294         0.735481        -2.816372
 H         2.947948        -1.004962        -4.214697
 H         3.954489        -1.766357        -3.074151
 H        -0.128871        -1.562659        -3.305543
 H         0.260407        -2.539019        -1.887604
 H         0.469943         0.485043        -2.456405
