19
Iteration:   313charge 0 multiplicity 1
 C         0.307772         0.190393         0.473939
 C         1.232478        -0.102540        -0.660194
 O         2.113285        -1.221621        -0.409615
 C         2.680175         0.023492        -0.973747
 C         2.475412        -0.149351        -2.455260
 C         2.997762        -1.567295        -2.891999
 O         1.837624        -2.301902        -3.216512
 C         0.659024        -1.725499        -2.660604
 C         0.982229        -0.307641        -2.172369
 H        -0.317163         0.928959         0.121123
 H        -0.515851        -0.620735         0.686876
 H         0.835177         0.574591         1.278187
 H         3.415659         0.616710        -0.478389
 H         2.811915         0.662557        -3.095007
 H         3.612558        -1.513912        -3.731045
 H         3.456983        -2.031777        -1.937235
 H        -0.050459        -1.593137        -3.453589
 H         0.226081        -2.400203        -1.847948
 H         0.244152         0.289812        -2.679103
