19
Iteration:  4357charge 0 multiplicity 1
 C         0.255901         0.490972         0.208616
 C         1.262234        -0.272990        -0.623851
 O         1.788813        -1.439892        -0.028198
 C         2.679957        -0.506459        -0.538302
 C         2.779250        -0.402064        -2.112379
 C         2.957380        -1.658101        -2.923509
 O         1.709861        -1.747720        -3.813886
 C         0.695925        -1.459369        -2.882911
 C         1.229609        -0.305969        -2.162683
 H         0.734619         0.764894         1.142164
 H        -0.198985         1.346738        -0.364083
 H        -0.620304        -0.303081         0.315245
 H         3.327845         0.106912         0.271851
 H         3.172646         0.450257        -2.618289
 H         3.905847        -1.650874        -3.511608
 H         2.926292        -2.481471        -2.191032
 H        -0.098125        -1.331833        -3.573695
 H         0.596458        -2.332116        -2.201395
 H         0.890453         0.677950        -2.614283
