19
Iteration:  2358
 C         0.330356         0.427421         0.364769
 C         1.235308        -0.190137        -0.677225
 O         2.010721        -1.372973        -0.366640
 C         2.708308        -0.124912        -0.869677
 C         2.416246        -0.115761        -2.426991
 C         2.899001        -1.295703        -3.300123
 O         2.001117        -2.345617        -2.907546
 C         0.743946        -1.828111        -2.630632
 C         0.915460        -0.364721        -2.153686
 H         0.293282         1.578348         0.173508
 H        -0.549514         0.034385         0.048852
 H         0.476737         0.311128         1.502382
 H         3.597020         0.240176        -0.313634
 H         2.438179         0.920657        -2.894447
 H         2.838706        -0.990092        -4.321418
 H         3.900362        -1.719975        -3.141573
 H         0.108788        -1.975742        -3.413793
 H         0.447066        -2.494977        -1.678806
 H         0.228742         0.359410        -2.473351
