19
Iteration:  3392charge 0 multiplicity 1
 C         0.286536         0.357769         0.443256
 C         1.213098        -0.222309        -0.599291
 O         2.074505        -1.390109        -0.303980
 C         2.693190        -0.092409        -0.802056
 C         2.549758        -0.134551        -2.331130
 C         2.962563        -1.588434        -2.880745
 O         1.834874        -2.219494        -3.443589
 C         0.638486        -1.658649        -2.816569
 C         0.980252        -0.262514        -2.207996
 H         0.831292         1.390536         0.633186
 H        -0.776999         0.467551         0.093281
 H         0.383152        -0.254072         1.337475
 H         3.494362         0.337544        -0.151200
 H         2.901541         0.738535        -2.841992
 H         3.628799        -1.565377        -3.719370
 H         3.294731        -2.196907        -2.087316
 H         0.012598        -1.547152        -3.804140
 H         0.291831        -2.163705        -1.849505
 H         0.447650         0.627286        -2.555059
