19
Iteration:  1038
 C         0.393321         0.665821         0.477017
 C         1.156960        -0.167856        -0.545930
 O         2.104976        -1.139166        -0.065396
 C         2.632286        -0.078588        -0.872409
 C         2.391583        -0.295358        -2.409974
 C         3.033918        -1.421077        -3.128134
 O         1.847247        -2.139983        -3.652697
 C         0.738242        -2.071038        -2.645763
 C         0.923565        -0.631963        -2.090091
 H         0.315905         1.660257         0.153373
 H        -0.752803         0.338170         0.525435
 H         0.908678         0.730339         1.378335
 H         3.425134         0.523691        -0.300568
 H         2.402263         0.598072        -3.026775
 H         3.687767        -1.240131        -3.941873
 H         3.521077        -2.156526        -2.541691
 H        -0.279950        -2.267312        -2.918398
 H         0.950001        -2.802781        -1.858824
 H         0.294363        -0.040898        -2.634240
