19
Iteration:  2880charge 0 multiplicity 1
 C         0.246548         0.305857         0.355103
 C         1.275767        -0.135801        -0.670903
 O         2.144401        -1.245385        -0.340063
 C         2.693779        -0.096255        -0.905933
 C         2.464498        -0.177285        -2.390706
 C         3.002411        -1.419227        -2.996157
 O         1.849443        -2.316682        -3.219135
 C         0.648471        -1.764299        -2.666142
 C         0.923185        -0.342601        -2.142842
 H        -0.217296         1.191861        -0.037246
 H        -0.329886        -0.560587         0.802268
 H         0.731737         0.762462         1.291634
 H         3.616349         0.359094        -0.341264
 H         2.669625         0.764244        -2.910897
 H         3.391461        -1.251963        -3.986796
 H         3.740900        -1.907490        -2.423129
 H        -0.090161        -1.908717        -3.434511
 H         0.328921        -2.422859        -1.740170
 H         0.151442         0.393415        -2.496729
