19
Iteration:   474
 C         0.288758         0.445561         0.393488
 C         1.212604        -0.146826        -0.650250
 O         2.050983        -1.266966        -0.239281
 C         2.683812        -0.056166        -0.895819
 C         2.495220        -0.197466        -2.403941
 C         3.017194        -1.416518        -3.137564
 O         1.843003        -2.293689        -3.368053
 C         0.745224        -1.898747        -2.559006
 C         0.932637        -0.409309        -2.077864
 H        -0.502863         1.110057        -0.207180
 H        -0.241499        -0.224003         0.912480
 H         0.853050         1.190896         0.953115
 H         3.419449         0.501947        -0.306092
 H         2.597567         0.745683        -2.873017
 H         3.298323        -1.130519        -4.173966
 H         3.787513        -1.960886        -2.606705
 H        -0.181770        -2.033434        -3.036443
 H         0.772842        -2.528723        -1.650431
 H         0.336206         0.320191        -2.556732
