19
Iteration:  3401
 C         0.316790         0.310795         0.432630
 C         1.258412        -0.229854        -0.548792
 O         2.003791        -1.306737        -0.241317
 C         2.694084        -0.114557        -0.787732
 C         2.531561        -0.202795        -2.378926
 C         2.937779        -1.578322        -2.933991
 O         1.796293        -2.174576        -3.460713
 C         0.704522        -1.663254        -2.846270
 C         1.052839        -0.283032        -2.189290
 H         0.472957         1.453954         0.694061
 H        -0.644279         0.293252        -0.022467
 H         0.322644        -0.095556         1.338370
 H         3.426537         0.448033        -0.304682
 H         2.939686         0.639624        -2.914221
 H         3.742716        -1.586023        -3.664818
 H         3.308092        -2.104301        -2.036844
 H        -0.135381        -1.613851        -3.535212
 H         0.275342        -2.367271        -2.081498
 H         0.484726         0.635619        -2.450954
