19
Iteration:  1371
 C         0.236100         0.372097         0.351479
 C         1.230121        -0.300942        -0.580017
 O         2.315606        -1.089471        -0.109968
 C         2.620694         0.136511        -0.883174
 C         2.475125        -0.233676        -2.378819
 C         2.957524        -1.713831        -2.885148
 O         1.760628        -2.106820        -3.601627
 C         0.668850        -1.804153        -2.758283
 C         1.007930        -0.518527        -2.075572
 H        -0.111889         1.267440        -0.095269
 H        -0.590454        -0.203624         0.586717
 H         0.739258         0.425522         1.372732
 H         3.409259         0.719607        -0.501363
 H         2.434293         0.631666        -3.193121
 H         3.776561        -1.638011        -3.587627
 H         3.053499        -2.407757        -2.049608
 H        -0.163803        -1.745460        -3.501998
 H         0.427908        -2.621873        -1.898987
 H         0.405560         0.344454        -2.468356
