19
Iteration:   135charge 0 multiplicity 1
 C         0.313425         0.296369         0.458297
 C         1.145253        -0.175683        -0.708765
 O         2.147601        -1.178387        -0.228717
 C         2.633498        -0.033130        -0.834267
 C         2.524692        -0.179600        -2.439272
 C         2.995589        -1.443462        -3.104357
 O         1.862913        -2.441377        -3.205506
 C         0.615586        -1.778269        -2.641680
 C         0.959604        -0.271030        -2.296919
 H         0.155619         1.425276         0.275342
 H        -0.564494        -0.284044         0.596378
 H         0.823952         0.124243         1.452054
 H         3.416650         0.691379        -0.172676
 H         2.967842         0.729809        -2.911220
 H         3.434162        -1.301312        -4.109520
 H         3.794367        -1.961347        -2.538808
 H        -0.132753        -1.718182        -3.526236
 H         0.264440        -2.367297        -1.800200
 H         0.367208         0.462878        -2.745684
