19
Iteration:   902charge 0 multiplicity 1
 C         0.350827         0.114653         0.517252
 C         1.232574        -0.251517        -0.663118
 O         2.370623        -1.129402        -0.310223
 C         2.696875         0.071351        -0.958668
 C         2.467683        -0.151739        -2.523241
 C         2.872492        -1.572937        -2.836911
 O         1.748302        -2.382156        -2.948361
 C         0.611537        -1.613195        -3.042501
 C         0.893939        -0.321325        -2.181865
 H        -0.675741         0.506400         0.093008
 H         0.004530        -0.802393         0.917300
 H         0.767727         0.816845         1.349747
 H         3.229281         0.891570        -0.544379
 H         2.763429         0.654738        -3.229677
 H         3.504203        -1.566757        -3.751030
 H         3.680920        -1.926254        -2.232608
 H         0.183437        -1.116352        -3.980642
 H        -0.179985        -2.338413        -2.868211
 H         0.263828         0.631520        -2.567213
