19
Iteration:   379charge 0 multiplicity 1
 C         0.142412         0.413209         0.311862
 C         1.288507        -0.156607        -0.556550
 O         2.290324        -1.117310        -0.079467
 C         2.768506         0.085534        -0.804765
 C         2.422066        -0.224098        -2.382007
 C         2.933846        -1.550468        -3.011751
 O         1.729705        -2.182570        -3.667888
 C         0.711081        -1.948147        -2.609617
 C         0.992187        -0.547211        -2.090409
 H         0.292138         1.427940         0.221761
 H        -0.935991         0.251227        -0.286710
 H         0.219586         0.212565         1.332928
 H         3.548689         0.651534        -0.412019
 H         2.627610         0.667704        -2.972157
 H         3.581658        -1.398345        -3.796275
 H         3.263353        -2.286558        -2.181794
 H        -0.216928        -2.134880        -3.100375
 H         0.823474        -2.778495        -1.847718
 H         0.326826         0.198097        -2.516890
