19
Iteration:  2860charge 0 multiplicity 1
 C         0.169356         0.281501         0.397680
 C         1.263071        -0.271630        -0.670641
 O         2.268984        -1.273686        -0.291951
 C         2.614795         0.041484        -0.857028
 C         2.554797        -0.131043        -2.419756
 C         2.954391        -1.481393        -3.104394
 O         1.795343        -2.368486        -3.169205
 C         0.620023        -1.670043        -2.674795
 C         1.018449        -0.311087        -2.186542
 H        -0.546262         0.841839        -0.158678
 H        -0.337254        -0.546811         0.983277
 H         0.570320         0.975833         1.285023
 H         3.332717         0.680539        -0.186193
 H         2.953328         0.724282        -3.031481
 H         3.342171        -1.478058        -4.132447
 H         3.672771        -2.017111        -2.463056
 H        -0.113268        -1.702187        -3.399282
 H         0.284124        -2.371279        -1.805762
 H         0.427941         0.542487        -2.757954
