19
Iteration:  1821
 C         0.310552         0.355609         0.424385
 C         1.181786        -0.246419        -0.548579
 O         2.257055        -1.147348        -0.124061
 C         2.627351        -0.001662        -0.842421
 C         2.480463        -0.247554        -2.400637
 C         2.921006        -1.462416        -3.213123
 O         1.853194        -2.375767        -3.148998
 C         0.635053        -1.691030        -2.919947
 C         0.936612        -0.445243        -2.151012
 H        -0.198233         1.300588        -0.022327
 H        -0.437740        -0.271333         0.761157
 H         0.806453         0.568255         1.260205
 H         3.433411         0.550563        -0.483037
 H         2.694876         0.765615        -2.822760
 H         3.411153        -1.171401        -4.213162
 H         3.763196        -1.957572        -2.705238
 H         0.136361        -1.585332        -3.896366
 H         0.056109        -2.509521        -2.357180
 H         0.408229         0.411393        -2.554689
