19
Iteration:  3532charge 0 multiplicity 1
 C         0.420976         0.495381         0.426868
 C         1.195916        -0.163722        -0.618393
 O         1.931277        -1.369164        -0.192693
 C         2.655583        -0.285846        -0.734338
 C         2.505091        -0.279598        -2.246735
 C         3.066187        -1.482799        -3.003520
 O         1.843216        -2.154360        -3.561718
 C         0.664298        -1.711676        -2.787005
 C         0.949700        -0.293847        -2.222164
 H        -0.792534         0.184322         0.376471
 H         0.761246         0.114642         1.429457
 H         0.535311         1.578226         0.497738
 H         3.423178         0.229496         0.009771
 H         2.826659         0.694944        -2.635916
 H         3.683365        -1.275141        -3.887863
 H         3.647444        -2.190640        -2.285903
 H        -0.058987        -1.752704        -3.616441
 H         0.311138        -2.427589        -2.075632
 H         0.718032         0.754289        -2.757875
