19
Iteration:  2296charge 0 multiplicity 1
 C         0.407751         0.542762         0.479163
 C         1.190300        -0.161828        -0.640581
 O         1.963867        -1.254934        -0.203427
 C         2.637263        -0.171034        -0.932908
 C         2.423078        -0.148316        -2.440359
 C         2.937130        -1.266575        -3.255504
 O         2.049607        -2.424400        -3.051751
 C         0.745978        -1.915418        -2.827988
 C         0.892168        -0.442637        -2.080238
 H        -0.143813         1.469437         0.089036
 H        -0.383237        -0.057561         0.912681
 H         1.091432         0.626296         1.377218
 H         3.469627         0.190883        -0.521564
 H         2.529603         0.879808        -2.786087
 H         2.861109        -1.038940        -4.403542
 H         3.948892        -1.638482        -2.996657
 H         0.285987        -1.618652        -3.861199
 H         0.085527        -2.644742        -2.219894
 H         0.186517         0.319647        -2.346220
