19
Iteration:  2165charge 0 multiplicity 1
 C         0.251880         0.117942         0.425037
 C         1.206679        -0.222999        -0.674210
 O         2.324251        -1.155629        -0.340531
 C         2.647274         0.097448        -0.928711
 C         2.474510        -0.115275        -2.494613
 C         2.940970        -1.525538        -2.823899
 O         1.819271        -2.394049        -3.059345
 C         0.560933        -1.677448        -2.897942
 C         0.976032        -0.326401        -2.198405
 H         0.224412         1.260233         0.462656
 H        -0.676245        -0.310498         0.569458
 H         0.949203        -0.023981         1.335888
 H         3.299018         0.774343        -0.456275
 H         2.780026         0.684116        -3.163325
 H         3.484440        -1.514565        -3.762493
 H         3.470693        -2.101519        -2.067852
 H        -0.027936        -1.554720        -3.794539
 H        -0.033267        -2.259723        -2.292786
 H         0.486945         0.539144        -2.549277
