19
Iteration:  3940charge 0 multiplicity 1
 C         0.189848         0.325097         0.297934
 C         1.267794        -0.197386        -0.569044
 O         1.979530        -1.490171        -0.235584
 C         2.742303        -0.276502        -0.666885
 C         2.769183        -0.336670        -2.212692
 C         2.922695        -1.663459        -2.841036
 O         1.736330        -2.000842        -3.619549
 C         0.577461        -1.417016        -2.866048
 C         1.133983        -0.134928        -2.154609
 H        -0.477343        -0.597581         0.510738
 H         0.535866         0.692853         1.288233
 H        -0.321173         1.222591        -0.177341
 H         3.476953         0.123909         0.139582
 H         3.312664         0.492547        -2.727936
 H         3.739624        -1.654936        -3.650463
 H         3.177949        -2.544106        -2.122267
 H        -0.074814        -1.116949        -3.692261
 H         0.254027        -2.224758        -2.213358
 H         0.627826         0.747080        -2.762671
