19
Iteration:  2354charge 0 multiplicity 1
 C         0.360849         0.449886         0.369185
 C         1.237181        -0.194108        -0.663655
 O         1.996052        -1.395564        -0.397205
 C         2.680530        -0.116306        -0.844771
 C         2.440291        -0.089754        -2.456287
 C         2.886151        -1.299852        -3.285328
 O         2.025961        -2.335394        -2.900357
 C         0.740179        -1.835811        -2.584070
 C         0.907358        -0.412965        -2.176274
 H         0.391628         1.464909         0.238022
 H        -0.717460         0.094317         0.026695
 H         0.602640         0.361192         1.382925
 H         3.601846         0.297769        -0.189899
 H         2.493405         0.924993        -2.811242
 H         2.790690        -0.926166        -4.383040
 H         3.918409        -1.659837        -3.150870
 H        -0.003668        -1.988317        -3.495158
 H         0.348612        -2.391152        -1.831097
 H         0.145103         0.365161        -2.551533
