19
Iteration:  4067charge 0 multiplicity 1
 C         0.203763         0.542371         0.259989
 C         1.237115        -0.224966        -0.587206
 O         1.748030        -1.527125        -0.149770
 C         2.682425        -0.457405        -0.557209
 C         2.784539        -0.428630        -2.170192
 C         2.980006        -1.616072        -3.080652
 O         1.768021        -1.752896        -3.763456
 C         0.715791        -1.520924        -2.758024
 C         1.227051        -0.296231        -2.055831
 H         0.446282         0.645658         1.428348
 H         0.330942         1.548441        -0.096426
 H        -0.797885         0.148050         0.171237
 H         3.420104        -0.018833         0.256576
 H         3.350725         0.473545        -2.614241
 H         3.757647        -1.458314        -3.802878
 H         3.175522        -2.543142        -2.609947
 H        -0.281916        -1.564683        -3.308853
 H         0.450052        -2.413458        -2.045607
 H         0.861790         0.560907        -2.617574
