19
Iteration:  3194
 C         0.248912         0.341281         0.459326
 C         1.257339        -0.209303        -0.665838
 O         2.041169        -1.384464        -0.329213
 C         2.693540        -0.157811        -0.865309
 C         2.541644        -0.074898        -2.389768
 C         2.899573        -1.431102        -3.148790
 O         1.927913        -2.453029        -2.924938
 C         0.667774        -1.608843        -2.903976
 C         0.970208        -0.197937        -2.197598
 H         0.048502        -0.578294         1.255184
 H         0.697842         1.137796         1.068805
 H        -0.600733         0.644483        -0.106641
 H         3.551157         0.256785        -0.268716
 H         3.024838         0.815447        -2.766587
 H         3.071387        -1.149199        -4.267439
 H         3.838346        -1.766965        -2.810933
 H         0.440322        -1.508380        -3.874093
 H        -0.206339        -2.117196        -2.434729
 H         0.230906         0.589355        -2.406042
