19
Iteration:  3105
 C         0.258700         0.265692         0.441078
 C         1.205995        -0.175765        -0.586222
 O         2.107094        -1.220386        -0.298870
 C         2.717957         0.003957        -0.905896
 C         2.536903        -0.178675        -2.414258
 C         3.043980        -1.538621        -2.990129
 O         1.818404        -2.330897        -3.285163
 C         0.625163        -1.684531        -2.760830
 C         0.998072        -0.337953        -2.145195
 H        -0.892330         0.052224         0.202611
 H         0.208211        -0.217672         1.419021
 H         0.410067         1.263966         0.616399
 H         3.570578         0.504899        -0.257767
 H         2.543387         0.708156        -3.075556
 H         3.559071        -1.529193        -4.004033
 H         3.666727        -2.094369        -2.337805
 H        -0.020679        -1.447662        -3.667082
 H         0.020005        -2.384317        -2.072665
 H         0.438696         0.586310        -2.374565
