19
Iteration:  2728charge 0 multiplicity 1
 C         0.229780         0.181947         0.405979
 C         1.179027        -0.121394        -0.651456
 O         2.159288        -1.267348        -0.399993
 C         2.684726         0.013804        -0.895199
 C         2.572111        -0.147905        -2.480239
 C         2.953778        -1.472170        -3.169584
 O         1.912900        -2.442771        -2.908207
 C         0.650698        -1.647528        -2.717172
 C         0.893891        -0.275608        -2.122793
 H         0.033500         1.163244         0.505172
 H        -0.707115        -0.339436         0.188853
 H         0.809740        -0.054624         1.326241
 H         3.406983         0.652848        -0.363680
 H         2.948267         0.716282        -3.019652
 H         3.279729        -1.278307        -4.268654
 H         3.799667        -1.901397        -2.597273
 H         0.223074        -1.354678        -3.775005
 H        -0.131913        -2.280272        -2.155088
 H         0.167744         0.530282        -2.565195
