19
Iteration:  4084
 C         0.288709         0.438623         0.269784
 C         1.228955        -0.220265        -0.596547
 O         1.750499        -1.425464        -0.095891
 C         2.727295        -0.487203        -0.577191
 C         2.715851        -0.381449        -2.077951
 C         2.971716        -1.651398        -2.967429
 O         1.727942        -1.828247        -3.801871
 C         0.732713        -1.502379        -2.873968
 C         1.186381        -0.185989        -2.193857
 H         0.685385         0.524321         1.198830
 H        -0.103692         1.425892        -0.099431
 H        -0.527665        -0.370232         0.430544
 H         3.504762        -0.323195         0.099491
 H         3.260200         0.492463        -2.263980
 H         3.769714        -1.624783        -3.765025
 H         3.102820        -2.560049        -2.258312
 H        -0.229811        -1.313502        -3.320403
 H         0.732758        -2.226870        -2.117844
 H         0.866373         0.795908        -2.578003
