19
Iteration:  4276
 C         0.370294         0.467470         0.370843
 C         1.169768        -0.169951        -0.653309
 O         1.686415        -1.517698        -0.213623
 C         2.637407        -0.439541        -0.626590
 C         2.681737        -0.358059        -2.158865
 C         2.997186        -1.599364        -2.906647
 O         1.849723        -1.950861        -3.648489
 C         0.704231        -1.501478        -2.888063
 C         1.182372        -0.161647        -2.180498
 H         0.816406         0.219981         1.392422
 H         0.429122         1.584833         0.245141
 H        -0.600097         0.091572         0.440610
 H         3.364220        -0.212631         0.029944
 H         3.253502         0.503880        -2.603498
 H         3.769057        -1.314246        -3.638273
 H         3.448658        -2.421565        -2.213446
 H        -0.095353        -1.427551        -3.744672
 H         0.349145        -2.278557        -2.341167
 H         0.704695         0.773809        -2.497632
