19
Iteration:   630charge 0 multiplicity 1
 C         0.241545         0.131416         0.366063
 C         1.214585        -0.191145        -0.701600
 O         2.235073        -1.211165        -0.311838
 C         2.663138         0.066503        -0.960301
 C         2.540532        -0.151599        -2.440517
 C         2.914424        -1.454095        -3.078573
 O         1.854840        -2.442325        -2.919256
 C         0.590505        -1.659716        -2.719953
 C         0.990751        -0.266097        -2.199290
 H         0.120285         1.297876         0.491343
 H        -0.781273        -0.338007         0.305476
 H         0.696531        -0.254516         1.327862
 H         3.447853         0.682487        -0.398956
 H         2.902188         0.712642        -3.197237
 H         3.149624        -1.309512        -4.222579
 H         3.812294        -1.924302        -2.652471
 H         0.113751        -1.663265        -3.726882
 H        -0.133367        -2.135436        -1.975477
 H         0.322086         0.552960        -2.663524
