19
Iteration:  2774
 C         0.361684         0.184968         0.407752
 C         1.188571        -0.317036        -0.728302
 O         2.354541        -1.241744        -0.320064
 C         2.583039         0.078786        -0.903755
 C         2.478844        -0.078035        -2.448565
 C         2.930308        -1.551159        -2.942127
 O         1.795924        -2.390512        -2.869096
 C         0.592910        -1.630713        -2.944997
 C         0.924169        -0.298825        -2.251780
 H        -0.104373         1.085217         0.238190
 H        -0.448143        -0.497402         0.452877
 H         1.019153         0.224947         1.361541
 H         3.066387         0.815685        -0.132401
 H         2.818651         0.915800        -2.890419
 H         3.147974        -1.354121        -4.035500
 H         3.848757        -1.964734        -2.397584
 H         0.296950        -1.278921        -4.036916
 H        -0.181306        -2.270901        -2.558979
 H         0.368166         0.648341        -2.454155
