19
Iteration:  3758charge 0 multiplicity 1
 C         0.284470         0.591138         0.245882
 C         1.265771        -0.226691        -0.548843
 O         1.824223        -1.479991        -0.155345
 C         2.707863        -0.390251        -0.641475
 C         2.633776        -0.293673        -2.232525
 C         3.009612        -1.519742        -3.103024
 O         1.747499        -1.929057        -3.744463
 C         0.678015        -1.716532        -2.659470
 C         1.150098        -0.299037        -2.019331
 H         0.733386         1.408090         0.748327
 H        -0.495598         0.847037        -0.479278
 H        -0.209691         0.025818         1.201923
 H         3.580269        -0.139608         0.134084
 H         2.957709         0.733816        -2.612261
 H         3.679388        -1.210696        -3.979486
 H         3.548688        -2.458971        -2.599723
 H        -0.232487        -1.592812        -3.306389
 H         0.685212        -2.459635        -1.951568
 H         0.787211         0.520735        -2.492878
