19
Iteration:   802charge 0 multiplicity 1
 C         0.166407         0.333838         0.315951
 C         1.227720        -0.210929        -0.632277
 O         2.229347        -1.238671        -0.328960
 C         2.729823        -0.069374        -0.891143
 C         2.472487        -0.161532        -2.421753
 C         2.895689        -1.420888        -3.228632
 O         1.921474        -2.330167        -3.019932
 C         0.639298        -1.818005        -2.556942
 C         0.972294        -0.318978        -2.173090
 H         0.026317         1.452444         0.242025
 H        -0.827344        -0.229315         0.103564
 H         0.466514         0.197611         1.355780
 H         3.627755         0.319742        -0.254238
 H         2.618045         0.732272        -2.961424
 H         2.810534        -1.032377        -4.326931
 H         3.881236        -1.876225        -2.985749
 H         0.033514        -1.846355        -3.434428
 H         0.179849        -2.363895        -1.753659
 H         0.483543         0.605081        -2.570672
