19
Iteration:  4258
 C         0.210761         0.520064         0.463572
 C         1.202181        -0.241259        -0.593165
 O         1.773279        -1.522816        -0.402537
 C         2.665412        -0.419345        -0.617109
 C         2.788404        -0.286291        -2.168937
 C         3.086773        -1.666302        -2.959195
 O         1.777835        -2.002034        -3.580384
 C         0.677491        -1.409872        -2.883007
 C         1.140203        -0.203491        -2.154475
 H         0.411974         0.307852         1.472126
 H         0.401635         1.620532         0.241378
 H        -0.816991         0.224498         0.068280
 H         3.372059        -0.218909         0.213255
 H         3.302460         0.615882        -2.408578
 H         3.891413        -1.672204        -3.697772
 H         3.326668        -2.322584        -2.177998
 H        -0.231319        -1.282400        -3.418163
 H         0.359618        -2.175620        -2.045447
 H         0.847726         0.647827        -2.818785
