19
Iteration:  1507charge 0 multiplicity 1
 C         0.417449         0.501799         0.432207
 C         1.140925        -0.186125        -0.652679
 O         2.031944        -1.373457        -0.291261
 C         2.602225        -0.175640        -0.849523
 C         2.500292        -0.150577        -2.384862
 C         2.912363        -1.292039        -3.293114
 O         2.035960        -2.412645        -2.888392
 C         0.712755        -1.793472        -2.851128
 C         0.897662        -0.336251        -2.196906
 H         0.174571         1.632386         0.209446
 H        -0.527685        -0.029929         0.662161
 H         1.050671         0.422813         1.270636
 H         3.321828         0.362385        -0.342116
 H         2.647862         0.913444        -2.594085
 H         2.603612        -1.027531        -4.331568
 H         3.922012        -1.694793        -3.112021
 H         0.095193        -1.681379        -3.829225
 H         0.223154        -2.543975        -2.068593
 H         0.152188         0.271108        -2.656779
