19
Iteration:  1170
 C         0.325000         0.224246         0.383604
 C         1.235221        -0.208955        -0.654600
 O         2.206996        -1.165367        -0.383545
 C         2.645718         0.068953        -0.947784
 C         2.514316        -0.148695        -2.389625
 C         2.976828        -1.549462        -2.877340
 O         1.783104        -2.352262        -3.163121
 C         0.613018        -1.721877        -2.792794
 C         0.977811        -0.320853        -2.147969
 H        -0.060437         1.169791         0.310029
 H        -0.549132        -0.569740         0.402927
 H         0.831561         0.173111         1.281752
 H         3.486625         0.646684        -0.316319
 H         2.733068         0.698621        -3.054100
 H         3.537241        -1.468367        -3.788504
 H         3.483551        -2.145902        -2.119648
 H         0.030891        -1.516780        -3.679014
 H        -0.061988        -2.330000        -2.045108
 H         0.224902         0.378770        -2.361392
