19
Iteration:  3379charge 0 multiplicity 1
 C         0.327766         0.378500         0.442045
 C         1.159354        -0.227009        -0.686380
 O         2.133261        -1.388215        -0.400248
 C         2.612438        -0.142743        -0.765305
 C         2.590341        -0.198211        -2.320946
 C         3.044154        -1.529624        -2.857554
 O         1.816279        -2.219214        -3.372448
 C         0.568482        -1.611435        -2.796457
 C         0.984350        -0.281244        -2.200112
 H         0.710367         1.423417         0.941370
 H        -0.670558         0.594252         0.171848
 H         0.313750        -0.195969         1.243658
 H         3.336384         0.312251        -0.173197
 H         2.982897         0.646349        -2.869371
 H         3.786704        -1.369498        -3.627823
 H         3.543478        -2.078770        -2.052309
 H        -0.277827        -1.517843        -3.477371
 H         0.186386        -2.456770        -2.175594
 H         0.400744         0.569433        -2.644041
