19
Iteration:  1396
 C         0.219300         0.292034         0.366768
 C         1.269069        -0.154021        -0.651705
 O         2.298566        -1.049724        -0.162070
 C         2.708381         0.036659        -0.882783
 C         2.567225        -0.273404        -2.357616
 C         2.863262        -1.665638        -2.787798
 O         1.704865        -2.066952        -3.633084
 C         0.709089        -1.930324        -2.679975
 C         0.964465        -0.386775        -2.138738
 H        -0.502716         1.212987         0.046039
 H        -0.461756        -0.564989         0.393018
 H         0.477206         0.117234         1.360869
 H         3.494536         0.810843        -0.431875
 H         2.801879         0.455952        -3.106199
 H         3.706706        -1.603646        -3.481571
 H         2.842556        -2.343319        -1.935923
 H        -0.258253        -1.979309        -3.242377
 H         0.822542        -2.785535        -1.921599
 H         0.368513         0.413762        -2.616626
