19
Iteration:  4008charge 0 multiplicity 1
 C         0.369495         0.541617         0.453546
 C         1.167063        -0.238743        -0.593181
 O         1.700581        -1.463088        -0.130891
 C         2.675492        -0.449543        -0.647523
 C         2.682585        -0.350315        -2.191142
 C         3.073972        -1.579431        -3.021501
 O         1.832768        -1.916921        -3.731239
 C         0.723724        -1.582261        -2.886453
 C         1.037180        -0.275215        -2.150672
 H         0.238369        -0.014119         1.270607
 H         1.070250         1.375605         0.690097
 H        -0.489493         1.183848         0.054496
 H         3.402022        -0.100982         0.001195
 H         3.300305         0.488930        -2.336235
 H         3.765145        -1.340727        -3.869371
 H         3.438979        -2.484344        -2.493129
 H        -0.087095        -1.256882        -3.550946
 H         0.435539        -2.336309        -2.180680
 H         0.570281         0.640392        -2.590216
