19
Iteration:  3971
 C         0.333847         0.445139         0.467852
 C         1.195550        -0.204514        -0.615025
 O         1.795870        -1.449702        -0.300897
 C         2.648603        -0.367944        -0.663048
 C         2.764062        -0.286872        -2.185762
 C         2.982394        -1.647323        -2.923201
 O         1.804010        -1.985432        -3.663303
 C         0.666704        -1.521152        -2.853606
 C         1.088051        -0.200199        -2.191581
 H        -0.215867        -0.280886         1.278835
 H         1.081351         0.988323         1.063205
 H        -0.576978         0.953319         0.168366
 H         3.376213        -0.078119         0.177568
 H         3.382243         0.526235        -2.668141
 H         3.824034        -1.564480        -3.667689
 H         3.336470        -2.323289        -2.009765
 H        -0.087008        -1.314830        -3.620884
 H         0.385457        -2.411550        -2.269269
 H         0.681695         0.736060        -2.700809
