19
Iteration:  4237
 C         0.170954         0.406707         0.277950
 C         1.254202        -0.229238        -0.608195
 O         1.853334        -1.532449        -0.378451
 C         2.686254        -0.388271        -0.625260
 C         2.750612        -0.318943        -2.154124
 C         2.957748        -1.643266        -2.900598
 O         1.757812        -2.016961        -3.520794
 C         0.656551        -1.425185        -2.841128
 C         1.223141        -0.074174        -2.121507
 H         0.370506        -0.030832         1.209152
 H         0.313963         1.504968         0.394880
 H        -0.873622         0.202171        -0.185412
 H         3.598527        -0.257898         0.051211
 H         3.382391         0.435223        -2.574542
 H         3.707741        -1.441615        -3.696415
 H         3.308585        -2.485340        -2.304907
 H        -0.098461        -1.125173        -3.524599
 H         0.094630        -1.983213        -1.958608
 H         0.963226         0.909790        -2.589223
