19
Iteration:  4905charge 0 multiplicity 1
 C         0.222010         0.434948         0.430139
 C         1.130476        -0.218062        -0.618451
 O         1.807081        -1.597630        -0.288501
 C         2.591278        -0.408954        -0.635078
 C         2.841246        -0.308856        -2.117391
 C         3.061531        -1.617424        -2.930160
 O         1.716733        -2.173584        -3.431555
 C         0.717485        -1.188055        -3.113586
 C         1.200108        -0.146544        -2.208662
 H         0.919445         0.539001         1.342984
 H         0.038131         1.390669         0.179999
 H        -0.741286        -0.079461         0.739754
 H         3.411164        -0.152676         0.189583
 H         3.391318         0.490951        -2.489524
 H         3.716862        -1.496995        -3.893441
 H         3.586043        -2.360935        -2.274568
 H         0.309729        -0.845116        -4.096423
 H        -0.120012        -1.761594        -2.654025
 H         0.871710         0.910339        -2.441678
