19
Iteration:  2661charge 0 multiplicity 1
 C         0.218687         0.533790         0.360108
 C         1.264479        -0.214905        -0.521368
 O         2.085256        -1.366698        -0.212748
 C         2.708293        -0.091395        -0.891877
 C         2.461504        -0.177675        -2.380483
 C         2.938684        -1.246720        -3.267975
 O         1.963569        -2.396515        -3.143267
 C         0.679515        -1.838690        -2.732752
 C         0.954952        -0.431694        -2.102144
 H        -0.182650         1.261018        -0.200608
 H        -0.655311        -0.087116         0.711939
 H         0.600754         1.154544         1.098241
 H         3.444978         0.298335        -0.321681
 H         2.915183         0.679097        -2.753041
 H         2.952451        -0.980837        -4.374809
 H         3.897309        -1.612967        -3.001622
 H        -0.016486        -1.784161        -3.664767
 H         0.254477        -2.630406        -1.996295
 H         0.249800         0.380590        -2.582434
