19
Iteration:  4719charge 0 multiplicity 1
 C         0.322376         0.326382         0.390618
 C         1.172095        -0.205276        -0.645929
 O         1.719159        -1.569802        -0.473055
 C         2.597702        -0.411553        -0.638662
 C         2.827894        -0.303263        -2.109143
 C         2.995446        -1.594287        -2.898190
 O         1.769110        -2.176445        -3.271513
 C         0.723871        -1.232737        -3.055709
 C         1.169789        -0.025516        -2.230701
 H         0.881649         0.730142         1.370188
 H        -0.218849         1.164826         0.015624
 H        -0.512467        -0.406754         0.787668
 H         3.511981        -0.328004         0.072249
 H         3.446093         0.431460        -2.493561
 H         3.658678        -1.525290        -3.798511
 H         3.468198        -2.352842        -2.158404
 H         0.304921        -0.845922        -3.946603
 H        -0.034853        -1.742468        -2.550631
 H         0.905271         1.032932        -2.371481
