19
Iteration:   138
 C         0.314965         0.316656         0.461800
 C         1.152926        -0.159337        -0.708423
 O         2.124389        -1.183504        -0.262174
 C         2.658932        -0.042496        -0.836155
 C         2.547224        -0.161920        -2.432523
 C         2.993104        -1.424967        -3.104836
 O         1.853383        -2.431472        -3.178235
 C         0.613014        -1.795376        -2.655515
 C         0.967266        -0.297902        -2.295359
 H         0.091425         1.377673         0.384020
 H        -0.574857        -0.442556         0.667502
 H         0.849175         0.171455         1.397280
 H         3.311339         0.555607        -0.248061
 H         2.880499         0.793097        -2.893790
 H         3.511518        -1.314458        -4.107412
 H         3.807357        -1.994664        -2.492820
 H        -0.165785        -1.775004        -3.473980
 H         0.241059        -2.385616        -1.780565
 H         0.382612         0.507931        -2.786319
