19
Iteration:  2559
 C         0.209443         0.252656         0.270989
 C         1.261159        -0.258137        -0.697995
 O         2.222904        -1.274684        -0.266247
 C         2.713349        -0.068044        -0.840786
 C         2.459294        -0.165576        -2.447533
 C         2.926065        -1.349290        -3.248218
 O         1.903055        -2.304488        -2.883619
 C         0.634956        -1.751341        -2.665133
 C         0.954415        -0.310488        -2.183886
 H         0.068650         1.354410        -0.076292
 H        -0.793463        -0.125569         0.151985
 H         0.522635         0.037146         1.284589
 H         3.494578         0.676588        -0.222552
 H         2.707891         0.774284        -2.981741
 H         2.981841        -1.107148        -4.362240
 H         3.870614        -1.862521        -2.947668
 H        -0.057282        -1.812204        -3.627840
 H         0.054510        -2.454790        -1.842495
 H         0.189705         0.456370        -2.443430
