19
Iteration:  1243charge 0 multiplicity 1
 C         0.253160         0.347854         0.376642
 C         1.208689        -0.223549        -0.619755
 O         2.133630        -1.254891        -0.215158
 C         2.716099        -0.152968        -0.904250
 C         2.505758        -0.112442        -2.444086
 C         2.878458        -1.386316        -3.280347
 O         1.916673        -2.424858        -2.898421
 C         0.678519        -1.718069        -2.793744
 C         0.970451        -0.314693        -2.165957
 H         0.079715         1.525005         0.367452
 H        -0.714053        -0.177006         0.188038
 H         0.614293         0.142219         1.434095
 H         3.538698         0.449887        -0.346996
 H         2.825994         0.877686        -2.658176
 H         2.622488        -1.139103        -4.359858
 H         3.936956        -1.818446        -3.213455
 H         0.240551        -1.525263        -3.828651
 H         0.037033        -2.374874        -2.289451
 H         0.433877         0.500060        -2.711034
