19
Iteration:   461
 C         0.369150         0.518196         0.377291
 C         1.236331        -0.184345        -0.563001
 O         2.019089        -1.184012        -0.154127
 C         2.630558        -0.089774        -0.889622
 C         2.394070        -0.257396        -2.386080
 C         2.955348        -1.412758        -3.156743
 O         1.888760        -2.232850        -3.453316
 C         0.776255        -1.905655        -2.524540
 C         0.927918        -0.486619        -2.191176
 H        -0.441330         1.251363        -0.149615
 H        -0.216693        -0.292379         0.828359
 H         0.929531         0.964852         1.286858
 H         3.608787         0.361328        -0.430100
 H         2.715549         0.674284        -2.870326
 H         3.634136        -1.136757        -4.089580
 H         3.702331        -1.948962        -2.497388
 H        -0.045570        -2.134343        -3.235443
 H         0.819574        -2.566038        -1.648957
 H         0.235092         0.190276        -2.702305
