19
Iteration:   556
 C         0.268082         0.150257         0.436918
 C         1.232566        -0.257714        -0.696807
 O         2.336101        -1.119460        -0.300143
 C         2.639985         0.185724        -0.919830
 C         2.517713        -0.212366        -2.439826
 C         2.911457        -1.559906        -2.983796
 O         1.799971        -2.475763        -2.937184
 C         0.575437        -1.568254        -2.920655
 C         0.929389        -0.314259        -2.226490
 H        -0.369699         0.885295         0.155986
 H        -0.348376        -0.792373         0.947811
 H         0.840477         0.275405         1.393816
 H         3.433723         0.707259        -0.291772
 H         3.004534         0.675455        -3.000582
 H         3.144238        -1.443068        -4.029788
 H         3.859726        -1.987590        -2.622778
 H         0.189222        -1.396745        -3.972274
 H        -0.194019        -2.245469        -2.505705
 H         0.320890         0.634934        -2.493788
