19
Iteration:  3922charge 0 multiplicity 1
 C         0.095104         0.265376         0.280342
 C         1.257034        -0.236204        -0.605997
 O         2.058142        -1.363745        -0.228633
 C         2.768203        -0.223366        -0.584198
 C         2.754767        -0.296262        -2.169733
 C         2.938613        -1.747618        -2.934314
 O         1.628562        -2.008105        -3.609340
 C         0.599746        -1.395623        -2.925651
 C         1.241334        -0.246324        -2.118179
 H        -0.786333        -0.194737         0.150865
 H         0.333227         0.236903         1.336916
 H        -0.117598         1.349395         0.003059
 H         3.544180         0.151398         0.066810
 H         3.263929         0.528619        -2.638847
 H         3.698280        -1.875188        -3.693745
 H         3.089564        -2.396130        -2.177807
 H        -0.131241        -1.058932        -3.712085
 H         0.204508        -2.122542        -2.157324
 H         1.001784         0.765204        -2.317591
