19
Iteration:  1220
 C         0.321413         0.298672         0.386196
 C         1.213771        -0.275577        -0.658083
 O         2.190599        -1.229572        -0.209934
 C         2.676805         0.054395        -0.810901
 C         2.507897        -0.211278        -2.437840
 C         2.843200        -1.423521        -3.197747
 O         1.884796        -2.413072        -2.909971
 C         0.655815        -1.678304        -2.951577
 C         0.965273        -0.412735        -2.150619
 H         0.495720         1.512273         0.379168
 H        -0.723028         0.105470         0.218998
 H         0.702743         0.093473         1.490984
 H         3.296256         0.705679        -0.187856
 H         2.597067         0.741024        -2.929932
 H         2.763953        -1.191707        -4.327384
 H         3.861762        -1.844906        -2.974719
 H         0.369206        -1.326029        -3.993505
 H        -0.107207        -2.306626        -2.599555
 H         0.282036         0.433115        -2.524029
