19
Iteration:   533
 C         0.213948         0.148636         0.394710
 C         1.284753        -0.099551        -0.666040
 O         2.227262        -1.161558        -0.228554
 C         2.736047         0.042603        -0.911224
 C         2.539672        -0.175957        -2.490276
 C         2.923712        -1.483619        -3.114322
 O         1.772841        -2.396796        -3.022881
 C         0.610272        -1.671976        -2.783162
 C         0.975565        -0.364618        -2.178786
 H        -0.556366         0.615716        -0.102753
 H        -0.124619        -0.833212         0.985124
 H         0.502360         0.686875         1.297989
 H         3.576327         0.663020        -0.503652
 H         2.656789         0.864270        -2.942414
 H         3.446852        -1.565792        -4.022141
 H         3.591692        -1.972726        -2.405127
 H        -0.043281        -1.511595        -3.686191
 H         0.055828        -2.430565        -2.202604
 H         0.438882         0.545096        -2.629884
