19
Iteration:  3154
 C         0.275623         0.232179         0.244980
 C         1.250646        -0.288765        -0.608975
 O         2.148826        -1.273842        -0.165815
 C         2.717685        -0.050156        -0.790201
 C         2.620520        -0.161389        -2.376238
 C         2.935079        -1.413624        -3.174188
 O         1.793712        -2.368784        -3.099955
 C         0.573769        -1.598519        -2.796072
 C         0.991980        -0.312868        -2.200417
 H        -0.281073        -0.527396         0.595549
 H         0.606430         0.672881         1.202166
 H        -0.376066         1.087638        -0.164547
 H         3.270382         0.559896        -0.192258
 H         3.078848         0.727724        -2.791672
 H         3.186039        -1.245833        -4.194906
 H         3.830516        -1.935985        -2.696211
 H        -0.125137        -1.342979        -3.764779
 H         0.010775        -2.215966        -2.117768
 H         0.288351         0.483649        -2.431519
