19
Iteration:  4166
 C         0.186303         0.253063         0.330146
 C         1.258490        -0.297334        -0.604510
 O         1.939390        -1.446065        -0.198330
 C         2.709208        -0.282978        -0.634253
 C         2.760661        -0.369390        -2.176842
 C         2.922676        -1.706885        -2.799071
 O         1.746937        -2.039863        -3.544010
 C         0.593526        -1.174714        -3.125258
 C         1.201667        -0.175236        -2.154587
 H         0.886116         0.536573         1.223659
 H        -0.276189         1.170174        -0.007674
 H        -0.617289        -0.393423         0.588557
 H         3.582918        -0.147500         0.036584
 H         3.268785         0.502324        -2.715663
 H         3.674576        -1.907207        -3.540362
 H         3.060525        -2.414776        -1.986088
 H         0.018738        -0.658837        -3.996014
 H        -0.126222        -1.864235        -2.655950
 H         0.899717         0.863739        -2.334025
