19
Iteration:   921charge 0 multiplicity 1
 C         0.282536         0.133786         0.469858
 C         1.259060        -0.264159        -0.629997
 O         2.347002        -1.129042        -0.277853
 C         2.638971         0.165770        -0.941060
 C         2.471570        -0.145927        -2.415096
 C         2.996486        -1.557498        -2.968090
 O         1.711141        -2.470487        -3.082230
 C         0.544896        -1.589699        -2.893264
 C         1.001524        -0.341871        -2.234866
 H        -0.560942         0.683415         0.178902
 H        -0.066227        -0.774703         0.998363
 H         0.825630         0.747744         1.083609
 H         3.461171         0.926480        -0.442644
 H         2.641921         0.722470        -3.028951
 H         3.558612        -1.445515        -3.898606
 H         3.648552        -2.094794        -2.182863
 H         0.007256        -1.340895        -3.928767
 H        -0.214012        -2.252401        -2.367051
 H         0.380889         0.484664        -2.526590
