19
Iteration:  2189charge 0 multiplicity 1
 C         0.326215         0.072439         0.410390
 C         1.225862        -0.201321        -0.731826
 O         2.272794        -1.140207        -0.344300
 C         2.596294         0.158321        -0.888808
 C         2.544951        -0.142329        -2.462772
 C         2.987673        -1.586015        -2.864802
 O         1.796381        -2.382755        -3.070991
 C         0.541333        -1.648107        -2.787962
 C         0.957363        -0.279777        -2.261366
 H        -0.149643         1.020755         0.428558
 H        -0.466446        -0.746356         0.217223
 H         0.774806        -0.080865         1.394600
 H         3.301529         0.955641        -0.279735
 H         2.890306         0.612596        -3.142767
 H         3.459161        -1.572562        -3.788573
 H         3.543653        -2.241828        -2.197790
 H        -0.196726        -1.627984        -3.547361
 H         0.134262        -2.202527        -2.000899
 H         0.399762         0.648255        -2.623821
