19
Iteration:  3501
 C         0.293605         0.530805         0.411247
 C         1.176155        -0.281719        -0.550712
 O         1.977973        -1.310605        -0.146093
 C         2.649882        -0.173057        -0.687448
 C         2.605733        -0.283449        -2.297041
 C         3.025482        -1.596686        -3.098494
 O         1.775689        -2.027252        -3.678595
 C         0.730497        -1.761654        -2.757676
 C         1.043329        -0.410536        -2.116071
 H        -0.754811         0.820060        -0.085662
 H         0.202162         0.066670         1.451495
 H         0.782102         1.428096         0.692885
 H         3.298387         0.375979         0.099340
 H         2.869769         0.646380        -2.785927
 H         3.713365        -1.510365        -3.961010
 H         3.432608        -2.376718        -2.327915
 H        -0.137741        -1.519472        -3.473904
 H         0.503767        -2.498185        -1.964181
 H         0.678360         0.559182        -2.537383
