19
Iteration:  3091charge 0 multiplicity 1
 C         0.287439         0.303109         0.424082
 C         1.212596        -0.211586        -0.663365
 O         2.181088        -1.279722        -0.285140
 C         2.658880        -0.019404        -0.862667
 C         2.477964        -0.157235        -2.417582
 C         2.924441        -1.497346        -2.919560
 O         1.841320        -2.311195        -3.283380
 C         0.633223        -1.686861        -2.780479
 C         0.975595        -0.322638        -2.197171
 H        -0.731876         0.345396         0.015718
 H         0.559714        -0.399329         1.245372
 H         0.565936         1.352433         0.877963
 H         3.421734         0.419349        -0.332415
 H         2.997430         0.682559        -2.947432
 H         3.643644        -1.353781        -3.753844
 H         3.451655        -2.053288        -2.034672
 H        -0.044536        -1.696595        -3.524447
 H         0.345319        -2.332197        -1.948918
 H         0.337836         0.464227        -2.736179
