19
Iteration:  3889charge 0 multiplicity 1
 C         0.159680         0.230411         0.272373
 C         1.257004        -0.178472        -0.624053
 O         2.051094        -1.320057        -0.108711
 C         2.801760        -0.309832        -0.677810
 C         2.699218        -0.336237        -2.216579
 C         2.931516        -1.754529        -2.861216
 O         1.694792        -1.951154        -3.594912
 C         0.574320        -1.411363        -2.972418
 C         1.163767        -0.173208        -2.151582
 H        -0.718395         0.111305        -0.240348
 H         0.132012        -0.455001         1.115932
 H         0.315352         1.248744         0.736819
 H         3.567165         0.211805        -0.031098
 H         3.253330         0.547970        -2.554177
 H         3.641855        -1.998221        -3.644522
 H         3.018272        -2.450922        -2.083574
 H        -0.253862        -1.334985        -3.768441
 H         0.215854        -2.227435        -2.282511
 H         0.794064         0.767283        -2.452317
