19
Iteration:   464
 C         0.353292         0.491563         0.372775
 C         1.225000        -0.172732        -0.579990
 O         2.014442        -1.206110        -0.179954
 C         2.653419        -0.070333        -0.926848
 C         2.415406        -0.256961        -2.359429
 C         2.971839        -1.408372        -3.161850
 O         1.873083        -2.248854        -3.427323
 C         0.783442        -1.892399        -2.544622
 C         0.928805        -0.468182        -2.149417
 H        -0.382564         1.177395        -0.179091
 H        -0.134053        -0.210132         0.906270
 H         0.818534         0.974270         1.188807
 H         3.495393         0.372874        -0.414440
 H         2.719813         0.629380        -2.841721
 H         3.534980        -1.183705        -4.055397
 H         3.708951        -1.835070        -2.524018
 H        -0.055469        -2.117287        -3.121920
 H         0.770884        -2.528363        -1.633645
 H         0.292146         0.201283        -2.651175
