19
Iteration:  1253charge 0 multiplicity 1
 C         0.219399         0.331825         0.391454
 C         1.241237        -0.160353        -0.656732
 O         2.106698        -1.289396        -0.259871
 C         2.746937        -0.188203        -0.884521
 C         2.514592        -0.190606        -2.434329
 C         2.813255        -1.375187        -3.254752
 O         1.961066        -2.315225        -2.926601
 C         0.684752        -1.736890        -2.730836
 C         0.989095        -0.314494        -2.201542
 H         0.010123         1.501498         0.067761
 H        -0.786900        -0.143217         0.356807
 H         0.613783         0.262870         1.502615
 H         3.563169         0.301622        -0.312514
 H         2.715371         0.731006        -2.970150
 H         2.863200        -1.181577        -4.395278
 H         3.848812        -1.779183        -2.974857
 H         0.073238        -1.678080        -3.671629
 H         0.190643        -2.345380        -2.032830
 H         0.269165         0.476603        -2.548733
