19
Iteration:  4188
 C         0.094110         0.269970         0.373504
 C         1.273613        -0.194872        -0.598200
 O         1.982718        -1.442173        -0.255647
 C         2.685499        -0.290508        -0.592615
 C         2.803621        -0.406514        -2.108411
 C         2.942010        -1.778956        -2.946630
 O         1.683735        -2.060071        -3.542096
 C         0.694113        -1.225171        -3.030012
 C         1.218969        -0.135123        -2.158973
 H         0.236446         0.217675         1.544305
 H        -0.123276         1.290510         0.077268
 H        -0.688690        -0.352647         0.030343
 H         3.442424         0.255640         0.028177
 H         3.240193         0.493849        -2.661305
 H         3.667236        -1.720215        -3.757581
 H         3.201575        -2.631937        -2.319852
 H         0.038038        -0.718670        -3.830734
 H        -0.101510        -1.652070        -2.449163
 H         0.828519         0.855447        -2.396809
