19
Iteration:  3642
 C         0.247366         0.243193         0.359295
 C         1.296449        -0.232981        -0.656724
 O         2.117883        -1.308578        -0.152234
 C         2.713364        -0.155456        -0.718577
 C         2.653711        -0.289685        -2.260125
 C         2.975076        -1.648734        -2.865635
 O         1.692841        -2.093196        -3.511400
 C         0.488343        -1.438722        -2.925722
 C         1.128700        -0.319481        -2.201531
 H         0.062384        -0.618839         1.048576
 H         0.362432         1.266278         0.695177
 H        -0.640465         0.240586        -0.159536
 H         3.386317         0.456254        -0.052102
 H         3.106531         0.576194        -2.726206
 H         3.748369        -1.605504        -3.612944
 H         3.264636        -2.295988        -2.056398
 H        -0.129568        -1.234542        -3.759923
 H         0.055760        -2.116086        -2.193263
 H         0.724056         0.735982        -2.572752
