19
Iteration:  1033charge 0 multiplicity 1
 C         0.384154         0.630858         0.448033
 C         1.181208        -0.157926        -0.528852
 O         2.079983        -1.162778        -0.081440
 C         2.628984        -0.054752        -0.863549
 C         2.396949        -0.272041        -2.423941
 C         3.029852        -1.458718        -3.138740
 O         1.818898        -2.171327        -3.618066
 C         0.823797        -2.024767        -2.638488
 C         0.901874        -0.609590        -2.089509
 H         0.437450         1.755399         0.114421
 H        -0.597164         0.369992         0.519036
 H         0.913910         0.621523         1.490698
 H         3.341812         0.408670        -0.243019
 H         2.208924         0.638766        -3.053730
 H         3.627819        -1.105716        -4.059971
 H         3.575061        -2.176871        -2.422026
 H        -0.297554        -2.314465        -3.056304
 H         1.079727        -2.722937        -1.797938
 H         0.112304         0.107838        -2.715947
