19
Iteration:   780charge 0 multiplicity 1
 C         0.379469         0.446522         0.340033
 C         1.223790        -0.202940        -0.645465
 O         2.062963        -1.281565        -0.221555
 C         2.585058        -0.074044        -0.872270
 C         2.498454        -0.096056        -2.398171
 C         2.937918        -1.296491        -3.279773
 O         1.949352        -2.421103        -3.141478
 C         0.690509        -1.870215        -2.557670
 C         0.932931        -0.425173        -2.185836
 H         0.209861         1.568255         0.169529
 H        -0.657839        -0.116199         0.210867
 H         0.766621         0.405222         1.357737
 H         3.375835         0.420784        -0.175978
 H         2.714990         0.831501        -2.847945
 H         2.904420        -1.069244        -4.434646
 H         3.920311        -1.729449        -2.990925
 H        -0.105725        -1.898178        -3.299390
 H         0.380997        -2.497331        -1.740291
 H         0.268236         0.410690        -2.475972
