19
Iteration:  4601charge 0 multiplicity 1
 C         0.290007         0.426263         0.454183
 C         1.159326        -0.212881        -0.669123
 O         1.694648        -1.530218        -0.356286
 C         2.718257        -0.495304        -0.685336
 C         2.845082        -0.290552        -2.135832
 C         3.023162        -1.560840        -2.946404
 O         1.803697        -2.188180        -3.253315
 C         0.675767        -1.277475        -3.086589
 C         1.127361        -0.099856        -2.218542
 H         0.420232        -0.230350         1.378794
 H         0.469517         1.453567         0.655046
 H        -0.756535         0.298518         0.264471
 H         3.442452        -0.157300         0.103446
 H         3.202285         0.749517        -2.360893
 H         3.460204        -1.340925        -3.946626
 H         3.800098        -2.153187        -2.453306
 H         0.346007        -0.952549        -4.190853
 H        -0.192952        -1.903778        -2.693892
 H         0.704420         0.719842        -2.781301
