19
Iteration:  4611
 C         0.258543         0.397568         0.390973
 C         1.166950        -0.262184        -0.616123
 O         1.755707        -1.508180        -0.254758
 C         2.625861        -0.511119        -0.667620
 C         2.764614        -0.260915        -2.226066
 C         3.048219        -1.537998        -2.992730
 O         1.782794        -2.152066        -3.269355
 C         0.698965        -1.296488        -3.068352
 C         1.198649        -0.103176        -2.234071
 H         0.375797        -0.174168         1.361576
 H         0.618659         1.329231         0.552015
 H        -0.764776         0.436434         0.036274
 H         3.370113        -0.245797         0.086470
 H         3.480202         0.513733        -2.505636
 H         3.610704        -1.386682        -3.906441
 H         3.441703        -2.330738        -2.359456
 H         0.312072        -0.852307        -4.072542
 H        -0.110377        -1.865302        -2.602032
 H         0.843688         0.894545        -2.466780
