19
Iteration:    56
 C         0.244472         0.334456         0.402950
 C         1.169879        -0.224297        -0.676384
 O         2.257193        -1.103268        -0.145996
 C         2.588308         0.111215        -0.895270
 C         2.575480        -0.188697        -2.415740
 C         3.018186        -1.605255        -2.949395
 O         1.772722        -2.205043        -3.517893
 C         0.628347        -1.882739        -2.602771
 C         0.970487        -0.489606        -2.152138
 H         0.791396         1.311468         0.566100
 H        -0.670557         0.699349         0.107455
 H         0.315425        -0.206253         1.343018
 H         3.331608         0.807720        -0.347721
 H         2.671526         0.646309        -3.102650
 H         3.634804        -1.513716        -3.820445
 H         3.427009        -2.313798        -2.255362
 H        -0.302754        -1.930669        -3.231272
 H         0.561626        -2.622751        -1.790412
 H         0.369464         0.271115        -2.618924
