19
Iteration:  4997charge 0 multiplicity 1
 C         0.253723         0.208238         0.280428
 C         1.237996        -0.201818        -0.679423
 O         1.663118        -1.532797        -0.362320
 C         2.665158        -0.463123        -0.582687
 C         2.875595        -0.297390        -2.181959
 C         2.959803        -1.578397        -2.981409
 O         1.692658        -2.147369        -3.124459
 C         0.749525        -1.161131        -3.081601
 C         1.276815        -0.053624        -2.191183
 H         0.670430         0.307241         1.233188
 H        -0.109350         1.340583         0.066205
 H        -0.576282        -0.444895         0.392976
 H         3.314867        -0.150075         0.142138
 H         3.436408         0.697592        -2.413100
 H         3.503516        -1.577356        -4.016781
 H         3.587010        -2.412536        -2.436366
 H         0.324285        -0.761045        -4.085493
 H        -0.149610        -1.580484        -2.655341
 H         1.016734         0.893596        -2.650774
