19
Iteration:  2457
 C         0.303583         0.166669         0.442859
 C         1.244800        -0.246645        -0.629101
 O         2.298471        -1.181974        -0.356156
 C         2.653868         0.089459        -0.968292
 C         2.457725        -0.128781        -2.445828
 C         3.008768        -1.496182        -2.789876
 O         1.758307        -2.410577        -3.075175
 C         0.623319        -1.647945        -2.922355
 C         0.886325        -0.353501        -2.174884
 H        -0.587192         0.730238         0.005099
 H         0.066646        -0.664107         0.977508
 H         0.892174         0.819631         1.237883
 H         3.342135         0.635279        -0.525392
 H         2.664799         0.709186        -3.169184
 H         3.318144        -1.334350        -3.858277
 H         3.784553        -2.029651        -2.184367
 H         0.283791        -1.200755        -3.940332
 H        -0.202778        -2.326754        -2.495876
 H         0.340691         0.413463        -2.520676
