19
Iteration:  1660charge 0 multiplicity 1
 C         0.281030         0.302672         0.453076
 C         1.199221        -0.233066        -0.677991
 O         2.360004        -1.052709        -0.118554
 C         2.617725         0.078262        -0.852545
 C         2.526068        -0.276945        -2.398282
 C         2.896291        -1.716369        -2.734077
 O         1.746879        -2.001594        -3.661074
 C         0.656164        -1.872962        -2.746496
 C         0.926080        -0.482290        -2.204554
 H        -0.453395         0.920529        -0.104687
 H        -0.240975        -0.429945         1.062725
 H         0.856336         1.015267         1.039992
 H         3.381260         0.721016        -0.410793
 H         2.922278         0.453529        -3.226653
 H         3.740620        -1.703222        -3.328206
 H         3.133970        -2.564648        -2.138639
 H        -0.213763        -1.935272        -3.357371
 H         0.613389        -2.641671        -1.941621
 H         0.271270         0.329088        -2.431599
