19
Iteration:  2712
 C         0.219900         0.205738         0.411355
 C         1.203619        -0.175110        -0.680882
 O         2.146249        -1.207479        -0.289590
 C         2.703464        -0.034487        -0.869939
 C         2.526685        -0.123859        -2.398583
 C         2.911540        -1.422019        -3.179804
 O         1.864981        -2.405161        -2.974015
 C         0.654523        -1.724379        -2.728000
 C         1.057503        -0.293358        -2.266109
 H        -0.052424         1.385867         0.449907
 H        -0.696513        -0.415148         0.301648
 H         0.540149         0.079892         1.459765
 H         3.498600         0.396822        -0.224458
 H         2.733349         0.802752        -3.004615
 H         2.839815        -1.270930        -4.244080
 H         3.895206        -1.885015        -3.029158
 H         0.050683        -1.792958        -3.586158
 H         0.174607        -2.280398        -1.904564
 H         0.464646         0.460906        -2.679299
