19
Iteration:  1057charge 0 multiplicity 1
 C         0.364378         0.627780         0.361731
 C         1.188418        -0.189041        -0.564197
 O         2.196191        -1.114904        -0.017734
 C         2.616174        -0.000273        -0.832771
 C         2.467847        -0.298050        -2.299166
 C         2.937686        -1.552220        -3.102223
 O         1.782105        -2.101236        -3.704171
 C         0.794256        -2.060177        -2.674024
 C         0.886891        -0.632700        -2.063116
 H         0.034906         1.638619        -0.049245
 H        -0.475944         0.119932         0.761588
 H         1.112376         0.863376         1.206763
 H         3.229745         0.683160        -0.366949
 H         2.492497         0.706363        -2.793099
 H         3.549727        -1.116070        -3.929717
 H         3.493260        -2.279646        -2.410459
 H        -0.144682        -2.210945        -3.463254
 H         0.856645        -2.931295        -1.967345
 H         0.079565         0.115936        -2.587735
