19
Iteration:  4886
 C         0.331067         0.340384         0.449538
 C         1.154949        -0.203363        -0.604128
 O         1.672187        -1.469443        -0.403622
 C         2.684340        -0.437518        -0.587990
 C         2.726779        -0.349940        -2.197767
 C         3.035910        -1.645322        -2.912111
 O         1.807499        -2.132381        -3.353902
 C         0.682547        -1.249651        -3.057216
 C         1.209137        -0.084532        -2.216790
 H         0.648390         0.003421         1.402672
 H         0.236109         1.514650         0.354353
 H        -0.652470        -0.127370         0.281403
 H         3.371551        -0.191403         0.182882
 H         3.335886         0.554440        -2.465518
 H         3.688491        -1.432399        -3.764375
 H         3.543441        -2.362801        -2.175212
 H         0.301704        -0.906614        -4.122518
 H        -0.091667        -1.910525        -2.705983
 H         0.980073         0.913085        -2.585395
