19
Iteration:  3945
 C         0.226148         0.325220         0.314577
 C         1.303379        -0.205370        -0.595697
 O         1.925591        -1.497554        -0.226657
 C         2.725213        -0.291909        -0.691847
 C         2.676266        -0.317105        -2.204018
 C         2.992153        -1.693179        -2.832788
 O         1.722637        -1.966924        -3.601266
 C         0.627095        -1.404682        -2.865677
 C         1.125919        -0.157615        -2.194729
 H        -0.441781        -0.425611         0.624594
 H         0.658888         0.718969         1.231166
 H        -0.423218         1.054991        -0.170603
 H         3.466081         0.059955        -0.068240
 H         3.199333         0.479294        -2.694669
 H         3.742866        -1.660383        -3.565522
 H         3.242858        -2.363520        -2.076459
 H        -0.126629        -1.152950        -3.642272
 H         0.321444        -2.209807        -2.155886
 H         0.816561         0.740166        -2.633028
