19
Iteration:  3439charge 0 multiplicity 1
 C         0.196179         0.385664         0.350238
 C         1.222583        -0.192583        -0.600133
 O         2.114850        -1.249507        -0.106064
 C         2.712365        -0.071993        -0.709465
 C         2.645559        -0.365584        -2.239135
 C         2.935001        -1.666114        -3.042360
 O         1.697406        -2.011762        -3.650177
 C         0.674391        -1.722679        -2.767442
 C         1.107909        -0.330995        -2.126093
 H        -0.150922         1.274639        -0.046918
 H        -0.664933        -0.366504         0.261017
 H         0.503622         0.431534         1.505215
 H         3.351265         0.505006         0.009288
 H         3.064257         0.475925        -2.834982
 H         3.615620        -1.450676        -3.877417
 H         3.237573        -2.509719        -2.461466
 H        -0.322384        -1.629257        -3.363338
 H         0.765185        -2.543709        -2.016209
 H         0.624388         0.445530        -2.698827
