19
Iteration:  1483charge 0 multiplicity 1
 C         0.350618         0.483886         0.398900
 C         1.205000        -0.274663        -0.591873
 O         2.027379        -1.375006        -0.286766
 C         2.670279        -0.078735        -0.890649
 C         2.466233        -0.172546        -2.416691
 C         2.915968        -1.343579        -3.181043
 O         1.984654        -2.343185        -3.066307
 C         0.698967        -1.766109        -2.714666
 C         0.922703        -0.375733        -2.154574
 H        -0.057550         1.415736        -0.223894
 H        -0.497533        -0.052823         0.700994
 H         0.934707         0.869666         1.187469
 H         3.627258         0.248441        -0.343171
 H         2.554305         0.906081        -2.946120
 H         3.153982        -1.051124        -4.249562
 H         3.788894        -1.796847        -2.635894
 H         0.120640        -1.579085        -3.700764
 H         0.140809        -2.573197        -2.060533
 H         0.235463         0.293807        -2.692217
