19
Iteration:  3136charge 0 multiplicity 1
 C         0.216488         0.219130         0.359693
 C         1.198095        -0.176996        -0.670647
 O         2.227092        -1.233757        -0.147945
 C         2.703974        -0.060413        -0.794401
 C         2.541967        -0.200830        -2.340056
 C         2.916798        -1.472498        -3.100591
 O         1.787744        -2.359220        -3.206905
 C         0.608703        -1.652904        -2.813558
 C         1.071000        -0.294409        -2.235933
 H        -0.785137        -0.410448         0.258450
 H         0.738920         0.337779         1.334656
 H        -0.150087         1.286455         0.236531
 H         3.508862         0.548170        -0.257533
 H         2.740284         0.756507        -2.914137
 H         3.147225        -1.239486        -4.188858
 H         3.727725        -2.140299        -2.676048
 H         0.052411        -1.580180        -3.653941
 H         0.090613        -2.242312        -2.020524
 H         0.560857         0.704855        -2.519096
