19
Iteration:  4644
 C         0.163029         0.401907         0.189508
 C         1.228242        -0.279792        -0.590794
 O         1.906990        -1.483264        -0.257219
 C         2.708462        -0.442905        -0.554779
 C         2.841551        -0.319819        -2.098072
 C         2.951979        -1.554056        -3.005745
 O         1.681398        -2.111094        -3.376979
 C         0.623370        -1.306300        -3.057517
 C         1.224968        -0.203616        -2.108310
 H        -0.067658         0.015915         1.245761
 H         0.370569         1.394479         0.310746
 H        -0.792923         0.415282        -0.311080
 H         3.412257        -0.023753         0.269252
 H         3.612558         0.456667        -2.350831
 H         3.582133        -1.194182        -3.805535
 H         3.581711        -2.424600        -2.704804
 H         0.301499        -0.716728        -3.984561
 H        -0.229238        -1.895189        -2.697520
 H         0.855700         0.797495        -2.344131
