19
Iteration:  4716charge 0 multiplicity 1
 C         0.304624         0.329830         0.420161
 C         1.184235        -0.193204        -0.657641
 O         1.742168        -1.555354        -0.480793
 C         2.618936        -0.443000        -0.620378
 C         2.815990        -0.312222        -2.092987
 C         3.004953        -1.590100        -2.873642
 O         1.761047        -2.186328        -3.293498
 C         0.700588        -1.245807        -3.058187
 C         1.187055        -0.004754        -2.234108
 H         0.825016         0.674904         1.324800
 H        -0.251986         1.188097        -0.060182
 H        -0.496120        -0.405178         0.689970
 H         3.350753        -0.192529         0.038523
 H         3.512340         0.411561        -2.468382
 H         3.585716        -1.576147        -3.764938
 H         3.595184        -2.304598        -2.287675
 H         0.248090        -0.802227        -4.026464
 H        -0.135856        -1.765985        -2.466307
 H         0.854389         1.012689        -2.426241
