19
Iteration:  1898charge 0 multiplicity 1
 C         0.336728         0.003850         0.371497
 C         1.230851        -0.184306        -0.716183
 O         2.154336        -1.211213        -0.406009
 C         2.700427         0.021259        -0.904933
 C         2.521756        -0.091407        -2.488500
 C         2.960825        -1.510615        -2.948152
 O         1.762993        -2.360154        -2.809092
 C         0.618635        -1.581560        -2.750303
 C         0.972856        -0.240859        -2.300689
 H        -0.553642         0.721017        -0.010228
 H        -0.172642        -0.909943         0.640054
 H         0.760370         0.422336         1.201387
 H         3.644561         0.408957        -0.462490
 H         2.881032         0.821428        -3.110652
 H         3.149869        -1.468779        -4.096212
 H         3.928120        -1.792154        -2.461169
 H         0.217394        -1.503165        -3.821114
 H        -0.049517        -2.255844        -2.088891
 H         0.360427         0.575408        -2.720144
