19
Iteration:  4285
 C         0.411695         0.463095         0.402005
 C         1.200145        -0.225771        -0.685905
 O         1.678281        -1.429720        -0.144155
 C         2.629202        -0.491612        -0.591034
 C         2.641354        -0.386491        -2.138784
 C         3.038509        -1.583215        -2.904524
 O         1.852533        -1.941582        -3.696481
 C         0.688910        -1.456996        -2.976844
 C         1.112025        -0.233878        -2.201528
 H         1.051045         0.354476         1.347932
 H         0.367675         1.491401         0.134377
 H        -0.573274         0.099695         0.418125
 H         3.356422        -0.140006         0.131578
 H         3.190732         0.559958        -2.436750
 H         3.850188        -1.264142        -3.586613
 H         3.458346        -2.392242        -2.170947
 H        -0.284260        -1.321396        -3.535260
 H         0.524188        -2.233845        -2.189678
 H         0.834893         0.636621        -2.746890
