19
Iteration:  1050charge 0 multiplicity 1
 C         0.369603         0.697064         0.426333
 C         1.170615        -0.189405        -0.582695
 O         2.161361        -1.120388        -0.037998
 C         2.613244        -0.056358        -0.874876
 C         2.445931        -0.289600        -2.315498
 C         2.975508        -1.499900        -3.114613
 O         1.825485        -2.101655        -3.721562
 C         0.718656        -2.109402        -2.621147
 C         0.907243        -0.647910        -2.083523
 H         0.169535         1.633693         0.038670
 H        -0.610378         0.116555         0.850240
 H         0.923300         0.712306         1.303932
 H         3.416914         0.748015        -0.546488
 H         2.678930         0.691452        -2.706113
 H         3.566555        -1.136227        -3.913171
 H         3.506994        -2.050005        -2.376363
 H        -0.041622        -2.184878        -3.287259
 H         0.832889        -2.960090        -1.949974
 H         0.302856         0.003025        -2.507524
