19
Iteration:  1044
 C         0.368061         0.682345         0.467638
 C         1.151887        -0.183990        -0.575059
 O         2.132326        -1.125659        -0.051727
 C         2.634088        -0.072874        -0.874972
 C         2.403995        -0.301098        -2.363639
 C         2.999105        -1.427205        -3.119855
 O         1.853238        -2.113991        -3.696982
 C         0.709816        -2.105386        -2.617508
 C         0.942202        -0.663598        -2.076526
 H         0.198096         1.760877         0.054283
 H        -0.566378         0.301575         0.656466
 H         0.950011         0.722312         1.478834
 H         3.375243         0.575842        -0.520536
 H         2.676336         0.656536        -2.891963
 H         3.744530        -1.250800        -3.975992
 H         3.583414        -2.153173        -2.430409
 H        -0.372989        -2.232231        -3.147428
 H         0.859995        -2.928220        -1.882981
 H         0.218515         0.118141        -2.679232
