19
Iteration:  2055
 C         0.256828         0.476177         0.387632
 C         1.204840        -0.159483        -0.616401
 O         1.954049        -1.345566        -0.382438
 C         2.658640        -0.246492        -0.942775
 C         2.503126        -0.106982        -2.434373
 C         2.930670        -1.318613        -3.266151
 O         2.023573        -2.355000        -3.009165
 C         0.745015        -1.823607        -2.572683
 C         0.936300        -0.330892        -2.117510
 H        -0.421033         1.330295         0.058680
 H        -0.174770        -0.343874         0.877886
 H         0.980622         0.907496         1.250903
 H         3.446203         0.005076        -0.375670
 H         2.959877         0.802422        -2.930458
 H         2.983779        -0.928575        -4.284988
 H         3.957477        -1.649660        -3.017568
 H         0.074085        -1.869016        -3.475719
 H         0.411190        -2.450455        -1.821063
 H         0.262425         0.387612        -2.495126
