19
Iteration:   498charge 0 multiplicity 1
 C         0.213505         0.351666         0.369971
 C         1.216712        -0.183994        -0.660982
 O         2.231088        -1.280064        -0.299588
 C         2.681048         0.000478        -0.857450
 C         2.524899        -0.173801        -2.371352
 C         2.921375        -1.433889        -3.168606
 O         1.802722        -2.339624        -3.200668
 C         0.682889        -1.793152        -2.584463
 C         1.008025        -0.352088        -2.182852
 H        -0.649300         0.725963        -0.226165
 H        -0.285917        -0.453295         0.891746
 H         0.581160         1.199430         0.874006
 H         3.321473         0.504908        -0.216820
 H         2.877856         0.750622        -2.816571
 H         3.228056        -1.343494        -4.177461
 H         3.658212        -1.809969        -2.499714
 H        -0.172026        -1.815579        -3.205820
 H         0.463915        -2.297719        -1.615000
 H         0.409233         0.339032        -2.766003
