19
Iteration:   325
 C         0.302281         0.247971         0.452563
 C         1.247907        -0.120124        -0.642470
 O         2.132499        -1.163515        -0.336813
 C         2.678946         0.079287        -0.881745
 C         2.560786        -0.102538        -2.465186
 C         2.968631        -1.565902        -2.919485
 O         1.824198        -2.362982        -3.302340
 C         0.600844        -1.791721        -2.679820
 C         0.929602        -0.321057        -2.226455
 H        -0.227936         1.110511         0.341994
 H        -0.288012        -0.785035         0.420267
 H         0.649231         0.112541         1.430250
 H         3.384451         0.483820        -0.293500
 H         2.894924         0.780558        -3.022004
 H         3.614223        -1.598106        -3.738269
 H         3.614343        -2.124825        -2.116576
 H        -0.209802        -1.998199        -3.393561
 H         0.351945        -2.364953        -1.737608
 H         0.390200         0.576877        -2.553867
