19
Iteration:  2939
 C         0.320631         0.515068         0.425189
 C         1.151925        -0.200867        -0.608198
 O         2.111429        -1.238044        -0.148446
 C         2.594497         0.001637        -0.828153
 C         2.492212        -0.213643        -2.362988
 C         3.013768        -1.466296        -3.118596
 O         1.818534        -2.187622        -3.537025
 C         0.742035        -1.972478        -2.599651
 C         0.993091        -0.499555        -2.163644
 H         0.509317         1.607620         0.395300
 H        -0.718395         0.535556         0.257835
 H         0.646996         0.106432         1.390042
 H         3.183061         0.572702        -0.252372
 H         2.678407         0.738548        -2.905464
 H         3.516092        -1.214255        -4.068255
 H         3.688595        -2.067134        -2.479087
 H        -0.151808        -2.108800        -3.192016
 H         0.751121        -2.668164        -1.702225
 H         0.266216         0.212748        -2.641130
