19
Iteration:  2760
 C         0.293629         0.156474         0.416470
 C         1.211084        -0.287486        -0.697450
 O         2.301352        -1.242779        -0.351826
 C         2.682261        -0.012028        -0.899177
 C         2.491742        -0.060850        -2.452255
 C         2.894488        -1.386464        -2.967189
 O         1.821539        -2.413178        -2.827306
 C         0.597572        -1.636094        -2.944134
 C         0.916035        -0.293089        -2.283509
 H         0.221398         1.219189         0.324048
 H        -0.666880        -0.368215         0.677420
 H         0.899477         0.094958         1.336949
 H         3.475610         0.620432        -0.483680
 H         2.862696         0.674111        -3.125162
 H         3.438944        -1.533674        -3.937541
 H         3.559128        -1.788058        -2.223836
 H         0.323050        -1.643537        -4.031456
 H        -0.266951        -2.150640        -2.324862
 H         0.098326         0.473594        -2.640038
