19
Iteration:  4422
 C         0.327145         0.310009         0.362881
 C         1.239111        -0.297349        -0.724545
 O         1.762452        -1.507368        -0.311192
 C         2.706896        -0.328307        -0.578047
 C         2.769143        -0.272496        -2.189153
 C         2.935445        -1.695948        -2.740260
 O         1.751685        -2.022618        -3.501717
 C         0.692153        -1.332910        -3.022907
 C         1.190540        -0.050076        -2.218700
 H         0.499336        -0.175645         1.307562
 H         0.408271         1.412919         0.438157
 H        -0.737259         0.038449        -0.052277
 H         3.375872        -0.075685         0.398350
 H         3.369617         0.508594        -2.622172
 H         3.673514        -1.727054        -3.615470
 H         3.051086        -2.581358        -2.032110
 H        -0.043716        -1.080222        -3.799189
 H         0.066362        -1.890082        -2.371093
 H         0.726112         0.926764        -2.557780
