19
Iteration:  1875
 C         0.210249         0.152672         0.428486
 C         1.219884        -0.243292        -0.677301
 O         2.316381        -1.278160        -0.368648
 C         2.651991         0.046855        -0.892813
 C         2.618362        -0.112002        -2.471403
 C         2.944182        -1.541076        -3.047478
 O         1.791868        -2.380593        -2.835967
 C         0.561638        -1.578041        -2.869253
 C         0.952049        -0.273966        -2.222017
 H        -0.708451         0.792617         0.038399
 H        -0.207025        -0.744105         0.931086
 H         0.723142         0.734857         1.132299
 H         3.110739         0.830003        -0.403736
 H         2.940439         0.765188        -3.025315
 H         3.051001        -1.229032        -4.136204
 H         3.885198        -1.996498        -2.695917
 H         0.180382        -1.493804        -3.931082
 H        -0.099397        -2.271009        -2.212168
 H         0.448643         0.603636        -2.620284
