19
Iteration:   598charge 0 multiplicity 1
 C         0.296465         0.110675         0.428508
 C         1.230317        -0.263722        -0.632219
 O         2.374097        -1.215011        -0.346369
 C         2.671002         0.085838        -0.992063
 C         2.447290        -0.098921        -2.442199
 C         2.913512        -1.500229        -2.955634
 O         1.809845        -2.422107        -2.756970
 C         0.605151        -1.642954        -3.001427
 C         0.848181        -0.245723        -2.242201
 H         0.283149         1.270772         0.318206
 H        -0.879402        -0.248426         0.380921
 H         0.759090        -0.251514         1.395205
 H         3.557506         0.700838        -0.601804
 H         2.739661         0.601238        -3.335320
 H         3.435377        -1.515111        -4.026755
 H         3.667099        -1.871164        -2.230882
 H         0.504345        -1.442953        -4.047841
 H        -0.359003        -2.130943        -2.695264
 H         0.160309         0.609407        -2.668684
