19
Iteration:  4550
 C         0.338095         0.432863         0.326385
 C         1.214826        -0.235961        -0.603116
 O         1.639500        -1.626000        -0.357226
 C         2.625862        -0.576684        -0.664101
 C         2.773709        -0.351312        -2.167357
 C         3.111395        -1.421617        -3.090168
 O         1.783659        -2.150098        -3.016814
 C         0.615404        -1.255197        -3.130018
 C         1.234534        -0.047165        -2.208197
 H         0.842589         0.558412         1.263087
 H        -0.136193         1.445479        -0.114748
 H        -0.461613        -0.273665         0.510758
 H         3.427778        -0.558194         0.189362
 H         3.297890         0.671446        -2.320743
 H         3.347877        -1.084646        -4.125068
 H         3.943417        -2.094097        -2.843073
 H         0.313881        -1.076696        -4.119439
 H        -0.225729        -1.772476        -2.558546
 H         0.847218         0.921470        -2.679601
