19
Iteration:  3602charge 0 multiplicity 1
 C         0.182959         0.285596         0.352350
 C         1.255308        -0.196882        -0.576476
 O         1.980510        -1.325496        -0.236929
 C         2.783701        -0.198538        -0.713953
 C         2.756594        -0.236237        -2.279000
 C         2.997723        -1.583261        -3.029585
 O         1.708263        -2.185235        -3.430806
 C         0.547678        -1.535734        -2.801516
 C         1.182033        -0.229244        -2.172038
 H        -0.111456        -0.722887         0.909480
 H         0.265273         1.180750         1.081210
 H        -0.799947         0.527653        -0.269795
 H         3.477497         0.216422        -0.121490
 H         2.988229         0.685873        -2.815547
 H         3.582919        -1.444202        -3.984011
 H         3.574666        -2.388918        -2.389286
 H        -0.291782        -1.116214        -3.520663
 H        -0.037078        -2.190928        -2.082535
 H         0.809106         0.627873        -2.713144
