19
Iteration:   435charge 0 multiplicity 1
 C         0.338918         0.625603         0.432799
 C         1.147427        -0.140493        -0.626110
 O         2.122655        -1.163352        -0.107793
 C         2.573984        -0.032764        -0.823129
 C         2.474485        -0.265066        -2.332133
 C         2.991977        -1.445833        -3.146761
 O         1.787515        -2.209380        -3.639919
 C         0.830819        -2.051683        -2.633097
 C         0.934945        -0.566535        -2.071846
 H         0.153694         1.611451         0.173814
 H        -0.786064         0.151538         0.805544
 H         1.018797         0.555527         1.314430
 H         3.196279         0.685673        -0.389592
 H         2.764028         0.693064        -2.854743
 H         3.675652        -1.333321        -3.979424
 H         3.575062        -2.102995        -2.363900
 H        -0.102904        -2.365142        -3.201417
 H         1.109003        -2.712598        -1.781718
 H         0.266155         0.176060        -2.596887
