19
Iteration:  2004
 C         0.299685         0.488565         0.453401
 C         1.200620        -0.202195        -0.607405
 O         2.108148        -1.238219        -0.229151
 C         2.654882        -0.078419        -0.833542
 C         2.430171        -0.180876        -2.392889
 C         2.961788        -1.377830        -3.271812
 O         1.960598        -2.407978        -3.114090
 C         0.704439        -1.795178        -2.791468
 C         0.924004        -0.471766        -2.126597
 H         0.371876         1.480499         0.162683
 H        -0.777445         0.049189         0.515107
 H         0.718461         0.441194         1.432950
 H         3.465561         0.388002        -0.345693
 H         2.391637         0.750533        -2.846815
 H         3.076597        -1.013418        -4.326692
 H         3.917122        -1.707325        -2.896002
 H         0.235765        -1.616555        -3.784349
 H         0.041957        -2.523460        -2.272064
 H         0.304804         0.364299        -2.523985
