19
Iteration:  2430
 C         0.212479         0.244976         0.397822
 C         1.220837        -0.213924        -0.620019
 O         2.337392        -1.157088        -0.174947
 C         2.645014         0.016037        -0.861184
 C         2.505909        -0.137148        -2.484985
 C         2.993555        -1.492940        -3.098426
 O         1.753460        -2.386085        -3.101806
 C         0.606376        -1.706272        -2.876790
 C         0.973684        -0.398162        -2.154150
 H        -0.565312         0.904726         0.087472
 H        -0.121982        -0.812527         0.897153
 H         0.764715         0.739498         1.158502
 H         3.334280         0.803592        -0.287195
 H         2.669988         0.804340        -2.979418
 H         3.389854        -1.458158        -4.127704
 H         3.713496        -1.983025        -2.430045
 H         0.096702        -1.399348        -3.902080
 H        -0.039491        -2.327604        -2.299379
 H         0.364527         0.537074        -2.539186
