19
Iteration:  4860charge 0 multiplicity 1
 C         0.277065         0.349023         0.370029
 C         1.153466        -0.166891        -0.683923
 O         1.721337        -1.539917        -0.419434
 C         2.640134        -0.533797        -0.626940
 C         2.786640        -0.245493        -2.177689
 C         3.073020        -1.574585        -2.920325
 O         1.752974        -2.165439        -3.294801
 C         0.633688        -1.268428        -2.942997
 C         1.287095        -0.033292        -2.240770
 H         0.356220        -0.364883         1.291125
 H         0.438942         1.301779         0.602517
 H        -0.785645         0.229363         0.002973
 H         3.491132        -0.260482         0.175543
 H         3.352142         0.619286        -2.240819
 H         3.808329        -1.439047        -3.837345
 H         3.513032        -2.329636        -2.205656
 H         0.094554        -0.985081        -3.912856
 H        -0.096052        -1.901014        -2.364810
 H         0.959849         0.962986        -2.649786
