19
Iteration:   566charge 0 multiplicity 1
 C         0.346956         0.089025         0.429919
 C         1.224323        -0.311005        -0.684338
 O         2.315229        -1.123546        -0.313970
 C         2.604095         0.193785        -0.896735
 C         2.558035        -0.158052        -2.426617
 C         2.933094        -1.566166        -3.027208
 O         1.758055        -2.427982        -2.841036
 C         0.576974        -1.594576        -2.988993
 C         0.917353        -0.349495        -2.206630
 H        -0.039121         1.072143         0.268888
 H        -0.623733        -0.660191         0.612228
 H         1.038931         0.373401         1.249778
 H         3.308754         0.969759        -0.456336
 H         2.707415         0.698310        -3.207625
 H         3.265815        -1.452411        -4.090911
 H         3.617709        -2.068106        -2.336877
 H         0.413951        -1.250987        -4.030160
 H        -0.220236        -2.254764        -2.578731
 H         0.380710         0.621875        -2.558872
