19
Iteration:  4130charge 0 multiplicity 1
 C         0.286019         0.351424         0.429357
 C         1.144810        -0.248497        -0.613635
 O         1.890346        -1.519771        -0.268418
 C         2.672375        -0.249480        -0.592110
 C         2.777668        -0.372819        -2.152299
 C         2.938372        -1.766150        -2.801368
 O         1.812019        -1.980960        -3.655779
 C         0.591067        -1.259800        -3.102837
 C         1.151872        -0.190254        -2.164037
 H         0.941803         0.845136         1.139038
 H        -0.309825         1.159656        -0.008907
 H        -0.285154        -0.374217         1.087098
 H         3.585074        -0.057263         0.156757
 H         3.211287         0.462256        -2.736439
 H         3.911358        -1.803210        -3.335701
 H         2.909799        -2.531009        -1.937173
 H         0.000985        -0.915779        -4.023699
 H         0.096980        -1.914946        -2.479124
 H         0.893054         0.837923        -2.357430
