19
Iteration:   708
 C         0.398927         0.587771         0.318941
 C         1.125197        -0.258802        -0.634514
 O         2.079350        -1.303408        -0.133457
 C         2.593239        -0.212263        -0.847495
 C         2.449552        -0.156602        -2.345084
 C         2.980117        -1.257233        -3.279638
 O         1.956955        -2.329917        -3.231503
 C         0.689448        -1.911635        -2.616487
 C         0.956973        -0.442371        -2.137245
 H        -0.254650         1.323289        -0.167232
 H        -0.191932        -0.036558         0.870562
 H         1.055019         1.287516         0.948221
 H         3.362200         0.400994        -0.409396
 H         2.643110         0.908512        -2.846126
 H         2.935437        -0.891211        -4.301263
 H         3.901981        -1.786078        -3.018731
 H        -0.153608        -1.866942        -3.393739
 H         0.544791        -2.685380        -1.790212
 H         0.206088         0.152925        -2.775220
