19
Iteration:  2885
 C         0.283844         0.322760         0.388647
 C         1.290137        -0.132757        -0.700427
 O         2.090204        -1.242744        -0.326041
 C         2.711886        -0.090665        -0.923908
 C         2.479133        -0.163554        -2.401243
 C         2.999035        -1.381690        -3.004741
 O         1.849464        -2.304774        -3.224248
 C         0.662205        -1.783946        -2.656966
 C         0.911869        -0.399787        -2.107207
 H        -0.362597         1.172011        -0.007429
 H        -0.469386        -0.408392         0.646995
 H         0.811925         0.628729         1.299947
 H         3.482058         0.283095        -0.403490
 H         2.772133         0.763056        -2.928841
 H         3.439042        -1.340644        -4.041856
 H         3.745300        -1.938478        -2.299489
 H        -0.171390        -1.860675        -3.428247
 H         0.422574        -2.436656        -1.867838
 H         0.188982         0.326800        -2.527872
