19
Iteration:  4970
 C         0.114075         0.325387         0.292028
 C         1.224547        -0.224498        -0.575792
 O         1.835430        -1.511598        -0.247057
 C         2.664576        -0.451340        -0.526080
 C         2.811724        -0.433832        -2.105837
 C         3.026760        -1.609531        -3.053103
 O         1.680722        -2.199569        -3.312088
 C         0.703466        -1.117865        -3.165151
 C         1.259491        -0.038124        -2.178821
 H         0.594984         0.835184         1.257792
 H        -0.355000         1.079191        -0.210625
 H        -0.685787        -0.432949         0.603384
 H         3.613846        -0.044829         0.115687
 H         3.372012         0.446687        -2.231607
 H         3.456164        -1.292800        -4.003581
 H         3.687938        -2.412941        -2.785942
 H         0.306403        -0.739167        -4.012757
 H        -0.138586        -1.549285        -2.549499
 H         1.170099         0.946082        -2.709624
