19
Iteration:  1198
 C         0.291991         0.313902         0.432227
 C         1.183575        -0.267135        -0.607916
 O         2.320216        -1.233386        -0.224340
 C         2.614689        -0.024030        -0.935229
 C         2.471468        -0.156707        -2.429125
 C         3.009620        -1.436612        -3.058841
 O         1.831910        -2.438712        -3.004275
 C         0.589728        -1.670280        -2.939209
 C         0.908786        -0.335603        -2.224157
 H         0.292903         1.519590         0.469232
 H        -0.695266        -0.024697         0.254049
 H         0.696136         0.120408         1.519043
 H         3.341038         0.605902        -0.488159
 H         2.774802         0.771884        -2.924936
 H         3.399935        -1.312077        -4.111595
 H         3.782226        -1.965908        -2.447905
 H         0.130538        -1.476538        -3.958477
 H        -0.142504        -2.170365        -2.372340
 H         0.102954         0.464528        -2.356077
