19
Iteration:   649
 C         0.242270         0.234995         0.368403
 C         1.230858        -0.163751        -0.660707
 O         2.175556        -1.172577        -0.258976
 C         2.740415        -0.056851        -0.836002
 C         2.543149        -0.132366        -2.432019
 C         2.916401        -1.472128        -3.229464
 O         1.851767        -2.343632        -2.994766
 C         0.633578        -1.736728        -2.675781
 C         0.966278        -0.337879        -2.261160
 H        -0.278290         1.202003         0.201231
 H        -0.525357        -0.422376         0.131588
 H         0.492630        -0.040533         1.321431
 H         3.462805         0.577845        -0.279632
 H         2.760197         0.728635        -3.005674
 H         3.140443        -1.341871        -4.231129
 H         3.798437        -1.934364        -2.807430
 H        -0.286097        -1.762863        -3.319003
 H         0.342430        -2.306055        -1.772681
 H         0.336532         0.409344        -2.680301
