19
Iteration:   505charge 0 multiplicity 1
 C         0.215586         0.279912         0.347392
 C         1.254163        -0.184975        -0.667201
 O         2.212119        -1.252212        -0.286206
 C         2.675443        -0.018747        -0.900936
 C         2.526882        -0.183879        -2.385980
 C         2.919477        -1.436129        -3.099967
 O         1.801309        -2.360493        -3.167291
 C         0.674119        -1.743199        -2.607195
 C         0.991710        -0.322708        -2.161400
 H        -0.691823         0.677071        -0.342830
 H        -0.255930        -0.472141         0.940001
 H         0.644837         1.178994         0.907385
 H         3.417700         0.693508        -0.434875
 H         2.721812         0.773831        -2.848916
 H         3.258612        -1.198238        -4.207350
 H         3.761290        -2.042321        -2.643452
 H        -0.184989        -1.773791        -3.308010
 H         0.506573        -2.353908        -1.706937
 H         0.471734         0.503289        -2.622035
