19
Iteration:  1466
 C         0.311453         0.434931         0.310999
 C         1.255526        -0.204969        -0.634790
 O         2.093408        -1.300918        -0.230991
 C         2.673984        -0.118062        -0.886435
 C         2.446764        -0.116786        -2.392452
 C         3.055707        -1.407297        -3.125855
 O         1.863354        -2.335573        -3.203337
 C         0.636328        -1.766780        -2.697805
 C         0.927612        -0.388290        -2.111862
 H        -0.247057         1.158574        -0.184750
 H        -0.416653        -0.386985         0.692978
 H         0.793548         0.768523         1.280927
 H         3.350358         0.390669        -0.317306
 H         2.803820         0.723187        -2.843940
 H         3.270479        -1.161872        -4.156123
 H         3.830718        -1.884814        -2.524801
 H        -0.047742        -1.888325        -3.517897
 H         0.304565        -2.337995        -1.890364
 H         0.311524         0.476798        -2.360357
