19
Iteration:  4697
 C         0.185212         0.316680         0.314517
 C         1.223744        -0.179162        -0.649508
 O         1.768473        -1.527902        -0.355953
 C         2.706834        -0.419183        -0.556933
 C         2.809372        -0.299985        -2.144141
 C         3.026536        -1.616239        -2.974784
 O         1.707360        -2.139970        -3.310845
 C         0.629561        -1.223217        -3.020629
 C         1.288352        -0.115171        -2.247967
 H         0.707021         0.348694         1.390353
 H        -0.236568         1.281191         0.240294
 H        -0.692452        -0.416878         0.542578
 H         3.425297        -0.328306         0.341728
 H         3.265878         0.575687        -2.492577
 H         3.694300        -1.277226        -3.840948
 H         3.429641        -2.445337        -2.327535
 H         0.175521        -0.913107        -3.909885
 H        -0.089410        -1.737452        -2.480086
 H         1.208630         0.899517        -2.678825
