19
Iteration:  4386charge 0 multiplicity 1
 C         0.113978         0.446568         0.364123
 C         1.218710        -0.166459        -0.522427
 O         1.855202        -1.468769        -0.229279
 C         2.719631        -0.383682        -0.587326
 C         2.798296        -0.448350        -2.137177
 C         2.992430        -1.820022        -2.965949
 O         1.744566        -1.879442        -3.694296
 C         0.692714        -1.383570        -2.941459
 C         1.216775        -0.156384        -2.125389
 H         0.194695         0.391308         1.443811
 H        -0.176512         1.508678         0.040116
 H        -0.762398        -0.100651         0.142963
 H         3.356738        -0.053150         0.250167
 H         3.322243         0.359160        -2.758216
 H         3.848212        -1.522151        -3.586190
 H         3.298081        -2.707980        -2.328740
 H        -0.012991        -1.135328        -3.843634
 H         0.390550        -2.117409        -2.193335
 H         0.857060         0.766138        -2.641483
