19
Iteration:   178charge 0 multiplicity 1
 C         0.284971         0.350138         0.428046
 C         1.206763        -0.190565        -0.643921
 O         2.088780        -1.340682        -0.404652
 C         2.678073        -0.178392        -0.945601
 C         2.463184        -0.063776        -2.466563
 C         3.029611        -1.407943        -3.102363
 O         1.920527        -2.459267        -3.016583
 C         0.638172        -1.672739        -2.665373
 C         0.901548        -0.221817        -2.180996
 H        -0.552879         0.902417        -0.128975
 H        -0.117495        -0.367405         1.039252
 H         0.891590         1.051562         1.084261
 H         3.585389         0.387293        -0.258134
 H         2.750997         0.925876        -2.878493
 H         3.434928        -1.430237        -4.088401
 H         3.782463        -1.722184        -2.420807
 H         0.031371        -1.824593        -3.570142
 H         0.292270        -2.180809        -1.775484
 H         0.272668         0.539854        -2.572919
