19
Iteration:   127charge 0 multiplicity 1
 C         0.318008         0.280492         0.424169
 C         1.167836        -0.206134        -0.675827
 O         2.201121        -1.183897        -0.150436
 C         2.584935         0.037129        -0.837237
 C         2.477546        -0.209528        -2.427326
 C         2.970800        -1.533820        -3.111096
 O         1.877406        -2.418805        -3.257754
 C         0.661044        -1.707830        -2.675514
 C         0.960721        -0.281918        -2.237017
 H         0.229263         1.344226         0.205556
 H        -0.849131         0.062233         0.314522
 H         0.798967         0.105783         1.376743
 H         3.289561         0.668146        -0.394360
 H         3.001376         0.583723        -2.993999
 H         3.172637        -1.203868        -4.178196
 H         3.886562        -1.963849        -2.522010
 H        -0.077005        -1.761076        -3.527934
 H         0.293401        -2.323013        -1.826239
 H         0.258944         0.456820        -2.670980
