19
Iteration:  1838
 C         0.274469         0.294904         0.381025
 C         1.294228        -0.246119        -0.606554
 O         2.214844        -1.188171        -0.046972
 C         2.739826        -0.014213        -0.950412
 C         2.449708        -0.132196        -2.454641
 C         2.961231        -1.440681        -3.122838
 O         1.844944        -2.434063        -3.083587
 C         0.590891        -1.661431        -2.957927
 C         0.930245        -0.417421        -2.127316
 H        -0.369161         1.009206        -0.016685
 H        -0.374495        -0.643922         0.819208
 H         0.807554         0.816587         1.366113
 H         3.302401         0.795553        -0.345521
 H         2.707345         0.687169        -3.115213
 H         2.950015        -1.412965        -4.178800
 H         3.839918        -1.923412        -2.685742
 H         0.240110        -1.210363        -3.929521
 H        -0.209771        -2.320049        -2.664072
 H         0.219973         0.428303        -2.312883
