19
Iteration:  1661charge 0 multiplicity 1
 C         0.273856         0.313242         0.448104
 C         1.208682        -0.235074        -0.674911
 O         2.361093        -1.054623        -0.118627
 C         2.617237         0.077225        -0.850040
 C         2.522002        -0.281326        -2.411175
 C         2.891559        -1.719804        -2.738112
 O         1.747713        -1.998642        -3.656354
 C         0.659129        -1.868376        -2.751858
 C         0.926891        -0.488367        -2.195583
 H        -0.403469         0.888070        -0.061755
 H        -0.273945        -0.459150         1.056854
 H         0.865666         1.074657         1.065643
 H         3.381530         0.779903        -0.327721
 H         2.895540         0.430150        -3.190308
 H         3.758068        -1.706179        -3.353126
 H         3.143335        -2.547546        -2.136858
 H        -0.248197        -1.951623        -3.400877
 H         0.642897        -2.685773        -1.956437
 H         0.257442         0.346902        -2.454639
