19
Iteration:  2522charge 0 multiplicity 1
 C         0.189511         0.070706         0.346512
 C         1.274059        -0.192166        -0.627212
 O         2.263016        -1.150953        -0.294899
 C         2.795107         0.068790        -0.852720
 C         2.455120        -0.122848        -2.462178
 C         2.882695        -1.514221        -3.139816
 O         1.844519        -2.420109        -2.869764
 C         0.628365        -1.698498        -2.839355
 C         0.942296        -0.254294        -2.171873
 H        -0.173560         1.125461         0.136520
 H        -0.608246        -0.645647         0.157749
 H         0.494269         0.305447         1.439470
 H         3.349672         0.565754        -0.215853
 H         2.758576         0.684791        -3.185441
 H         2.875660        -1.246443        -4.253911
 H         3.867563        -1.967083        -2.890970
 H         0.325160        -1.417272        -3.917972
 H        -0.108301        -2.276923        -2.351142
 H         0.450351         0.588117        -2.536772
