19
Iteration:  4705
 C         0.221944         0.337207         0.402865
 C         1.217628        -0.184099        -0.675222
 O         1.782679        -1.531347        -0.441039
 C         2.701008        -0.477022        -0.568500
 C         2.771942        -0.295460        -2.139912
 C         3.055225        -1.630178        -2.879730
 O         1.718289        -2.176872        -3.324299
 C         0.614498        -1.230351        -3.043952
 C         1.278980        -0.025806        -2.222408
 H         0.731014         0.529770         1.351496
 H        -0.290864         1.326501         0.100381
 H        -0.528739        -0.471669         0.578951
 H         3.149013        -0.133985         0.255003
 H         3.432755         0.538210        -2.331365
 H         3.513112        -1.182918        -3.745189
 H         3.597332        -2.387807        -2.319030
 H         0.216161        -0.995319        -4.102782
 H        -0.207314        -1.796525        -2.464486
 H         0.976329         0.836687        -2.791949
