19
Iteration:  2747charge 0 multiplicity 1
 C         0.314805         0.166444         0.457816
 C         1.246392        -0.238276        -0.649279
 O         2.183780        -1.248857        -0.406679
 C         2.690242         0.013208        -0.974345
 C         2.416906        -0.106128        -2.501899
 C         2.993487        -1.470947        -2.961240
 O         1.838883        -2.343572        -2.830998
 C         0.631928        -1.654805        -2.886141
 C         0.952387        -0.317331        -2.220571
 H         0.003588         1.252929         0.318861
 H        -0.676254        -0.349247         0.222044
 H         0.674778        -0.088028         1.412998
 H         3.459530         0.394031        -0.422412
 H         2.655083         0.774275        -3.028875
 H         3.216671        -1.304832        -4.016780
 H         3.822137        -1.853725        -2.432668
 H         0.195781        -1.479332        -3.848068
 H        -0.106891        -2.291905        -2.253180
 H         0.392661         0.587759        -2.542142
