19
Iteration:  4120
 C         0.262121         0.411008         0.487514
 C         1.158554        -0.293991        -0.583603
 O         1.849182        -1.426689        -0.304203
 C         2.660314        -0.295753        -0.662887
 C         2.741729        -0.383480        -2.110861
 C         2.972423        -1.782363        -2.825724
 O         1.761199        -1.920328        -3.688442
 C         0.694848        -1.325413        -3.037793
 C         1.205744        -0.230058        -2.129215
 H         0.924201         0.903129         1.237048
 H        -0.485718         1.073291         0.097596
 H        -0.445873        -0.338160         0.904118
 H         3.552826        -0.039517         0.100932
 H         3.342291         0.461367        -2.571178
 H         3.830982        -1.825416        -3.509300
 H         3.006786        -2.696641        -2.161491
 H         0.058866        -0.940982        -3.964479
 H         0.058358        -2.065668        -2.545210
 H         0.981345         0.697072        -2.598179
