19
Iteration:  3042charge 0 multiplicity 1
 C         0.221658         0.358655         0.485859
 C         1.195398        -0.094784        -0.583924
 O         2.148473        -1.204717        -0.194246
 C         2.690787        -0.044436        -0.885557
 C         2.508591        -0.211990        -2.392425
 C         2.978683        -1.592090        -2.986449
 O         1.820300        -2.234300        -3.550382
 C         0.701526        -1.824426        -2.690158
 C         0.979376        -0.346408        -2.138234
 H        -0.520477         0.907367        -0.173558
 H        -0.157384        -0.527482         1.009816
 H         0.614073         1.021352         1.283393
 H         3.546357         0.635605        -0.362162
 H         2.731519         0.699050        -2.962229
 H         3.721734        -1.481018        -3.809334
 H         3.511403        -2.124593        -2.091684
 H        -0.231312        -1.882600        -3.433848
 H         0.659391        -2.568605        -1.905789
 H         0.261238         0.287029        -2.589329
