19
Iteration:  4897charge 0 multiplicity 1
 C         0.259251         0.380022         0.480799
 C         1.166417        -0.230847        -0.666975
 O         1.751083        -1.519138        -0.343904
 C         2.604211        -0.424322        -0.639244
 C         2.766540        -0.307189        -2.123850
 C         3.092176        -1.630630        -2.947405
 O         1.767312        -2.180847        -3.396026
 C         0.672877        -1.241521        -3.106129
 C         1.238176        -0.109785        -2.163014
 H         0.754952         0.360486         1.409133
 H         0.091672         1.560044         0.248988
 H        -0.765201        -0.003950         0.587618
 H         3.292232        -0.213861         0.103347
 H         3.290370         0.616740        -2.524524
 H         3.828065        -1.546615        -3.768275
 H         3.434105        -2.518210        -2.305003
 H         0.296587        -0.599878        -4.033747
 H        -0.136421        -1.679687        -2.563420
 H         0.959570         0.855027        -2.562144
