19
Iteration:  4593charge 0 multiplicity 1
 C         0.333080         0.395536         0.468500
 C         1.217122        -0.159687        -0.669816
 O         1.663060        -1.535489        -0.469053
 C         2.661212        -0.427681        -0.609591
 C         2.749149        -0.318636        -2.101284
 C         3.079013        -1.539416        -2.978116
 O         1.792273        -2.242970        -3.211076
 C         0.678322        -1.291105        -3.110087
 C         1.118908        -0.127779        -2.225062
 H         0.643107        -0.062072         1.410056
 H         0.367797         1.612298         0.719780
 H        -0.733887         0.226761         0.295806
 H         3.511615        -0.309592         0.192227
 H         3.294066         0.678876        -2.455215
 H         3.562130        -1.121989        -3.945569
 H         3.835091        -2.240376        -2.550704
 H         0.442874        -0.881019        -4.092640
 H        -0.184934        -1.886004        -2.612486
 H         0.866301         0.920825        -2.607863
