19
Iteration:  2688
 C         0.252453         0.295096         0.267780
 C         1.240772        -0.177747        -0.680886
 O         2.109469        -1.247134        -0.162074
 C         2.684960        -0.113232        -0.840999
 C         2.523701        -0.189129        -2.399596
 C         2.965373        -1.331802        -3.301869
 O         1.892207        -2.357769        -3.049850
 C         0.645210        -1.763803        -2.665940
 C         0.951522        -0.356375        -2.128883
 H        -0.080535         1.404229        -0.005065
 H        -0.588822        -0.392671         0.375979
 H         0.658673         0.546729         1.354758
 H         3.416561         0.507013        -0.166950
 H         2.997050         0.789068        -2.826280
 H         2.850161        -1.057319        -4.334627
 H         3.990437        -1.822308        -3.255370
 H         0.009227        -1.721575        -3.523396
 H         0.254620        -2.438507        -1.971699
 H         0.250200         0.372714        -2.470768
