19
Iteration:   348charge 0 multiplicity 1
 C         0.220144         0.235284         0.372850
 C         1.181222        -0.119743        -0.693823
 O         2.248076        -1.092159        -0.184313
 C         2.654636         0.036896        -0.867476
 C         2.506455        -0.247625        -2.402281
 C         2.945435        -1.586916        -3.011028
 O         1.771499        -2.242806        -3.401837
 C         0.684431        -1.779634        -2.588897
 C         1.039932        -0.430693        -2.189047
 H         0.193590         1.286899         0.331001
 H        -0.798000        -0.309824         0.405792
 H         0.541342        -0.076850         1.369121
 H         3.241111         0.786361        -0.565044
 H         2.843024         0.691965        -2.875575
 H         3.551144        -1.373283        -3.879421
 H         3.665933        -2.260087        -2.408911
 H        -0.214093        -1.744352        -3.265989
 H         0.405759        -2.408417        -1.704838
 H         0.421824         0.353978        -2.706528
