19
Iteration:  3910charge 0 multiplicity 1
 C         0.122095         0.230208         0.237968
 C         1.256601        -0.265392        -0.572546
 O         2.033158        -1.391814        -0.108105
 C         2.765313        -0.170362        -0.684613
 C         2.760197        -0.385856        -2.222434
 C         2.945363        -1.741125        -2.882401
 O         1.665086        -2.002696        -3.628730
 C         0.610622        -1.324218        -2.867631
 C         1.210573        -0.188559        -2.142603
 H        -0.717752        -0.180767        -0.137906
 H         0.291732        -0.135435         1.245847
 H         0.081019         1.375661         0.259926
 H         3.510785         0.310374         0.033414
 H         3.130586         0.460853        -2.808257
 H         3.698008        -1.690710        -3.708003
 H         3.129953        -2.519481        -2.262930
 H        -0.226945        -0.959970        -3.547217
 H        -0.000366        -2.030017        -2.225983
 H         0.829899         0.699457        -2.682098
