19
Iteration:  2548charge 0 multiplicity 1
 C         0.154642         0.222040         0.243281
 C         1.219468        -0.247644        -0.665953
 O         2.300520        -1.255478        -0.286030
 C         2.686471        -0.086355        -0.933140
 C         2.536089        -0.102345        -2.455174
 C         2.878466        -1.376473        -3.197789
 O         1.895991        -2.348572        -2.862146
 C         0.594992        -1.691007        -2.670685
 C         0.999967        -0.381655        -2.132029
 H        -0.028823         1.370610         0.168203
 H        -0.725054        -0.368112         0.056336
 H         0.432316         0.175002         1.297353
 H         3.321282         0.674984        -0.195396
 H         2.703258         0.866029        -2.972159
 H         2.809002        -1.120127        -4.299083
 H         3.894548        -1.792348        -2.999381
 H         0.066825        -1.476699        -3.685693
 H        -0.059959        -2.370291        -1.901389
 H         0.561948         0.529940        -2.576080
