19
Iteration:  2136charge 0 multiplicity 1
 C         0.241764         0.243631         0.419697
 C         1.246591        -0.169717        -0.557677
 O         2.266485        -1.172002        -0.241058
 C         2.679551         0.022084        -0.957504
 C         2.457759        -0.151640        -2.437552
 C         2.971364        -1.473662        -3.052164
 O         1.831372        -2.418927        -3.052180
 C         0.641599        -1.690388        -2.916173
 C         0.923052        -0.425390        -2.112611
 H         0.029980         1.243239         0.154715
 H        -0.819292        -0.322655         0.447558
 H         0.723304         0.230775         1.358980
 H         3.529595         0.754614        -0.480887
 H         2.735272         0.767799        -2.942745
 H         3.252727        -1.335967        -4.107021
 H         3.683558        -2.070186        -2.463856
 H         0.288796        -1.242309        -3.914549
 H        -0.252579        -2.405257        -2.649036
 H         0.278655         0.441915        -2.561323
