19
Iteration:   211
 C         0.337363         0.305933         0.323202
 C         1.230307        -0.247294        -0.660767
 O         2.133274        -1.228250        -0.243608
 C         2.701037        -0.062712        -0.826597
 C         2.550500        -0.206127        -2.324239
 C         2.917896        -1.407209        -3.260717
 O         1.901519        -2.436392        -2.959109
 C         0.599102        -1.653169        -2.852589
 C         0.906659        -0.351634        -2.109993
 H        -0.588361         0.637161        -0.244924
 H         0.102626        -0.349791         1.093769
 H         0.711163         1.280867         0.754227
 H         3.329273         0.789504        -0.166550
 H         2.790618         0.799593        -2.731548
 H         2.819228        -1.073204        -4.283405
 H         3.876227        -1.837482        -3.177376
 H         0.136818        -1.525331        -3.829337
 H        -0.123189        -2.283483        -2.347146
 H         0.429244         0.521667        -2.498342
