19
Iteration:  3838charge 0 multiplicity 1
 C         0.359768         0.414734         0.464909
 C         1.177601        -0.185538        -0.688479
 O         1.925745        -1.453640        -0.180763
 C         2.666949        -0.301012        -0.666282
 C         2.645036        -0.354967        -2.225131
 C         2.967013        -1.622005        -2.847611
 O         1.824958        -1.932350        -3.662732
 C         0.624340        -1.527173        -2.864056
 C         1.073826        -0.250486        -2.259698
 H        -0.425771         1.192431        -0.000909
 H        -0.176373        -0.352675         1.063612
 H         1.053604         0.951898         1.067852
 H         3.420186        -0.004719        -0.036042
 H         3.197121         0.463047        -2.658728
 H         3.765824        -1.578643        -3.548629
 H         3.112508        -2.530193        -2.093478
 H        -0.144677        -1.484518        -3.546410
 H         0.312853        -2.332678        -2.223810
 H         0.640608         0.646105        -2.734523
