19
Iteration:   959charge 0 multiplicity 1
 C         0.187199         0.253071         0.374605
 C         1.248499        -0.153263        -0.653444
 O         2.269718        -1.164762        -0.177753
 C         2.779374         0.018935        -0.894816
 C         2.456305        -0.156353        -2.424413
 C         2.982384        -1.486332        -3.107593
 O         1.757235        -2.374937        -3.262621
 C         0.622923        -1.777536        -2.638237
 C         0.989985        -0.352473        -2.171394
 H        -0.439694         1.127025        -0.000400
 H        -0.486447        -0.601456         0.545483
 H         0.590879         0.400711         1.456700
 H         3.574440         0.505204        -0.548954
 H         2.697994         0.781307        -2.982303
 H         3.293735        -1.401051        -4.171977
 H         3.621743        -2.000329        -2.443945
 H        -0.237459        -1.623069        -3.389501
 H         0.342964        -2.301421        -1.746816
 H         0.366261         0.467529        -2.716905
