19
Iteration:    69
 C         0.245181         0.417897         0.329825
 C         1.234098        -0.307994        -0.556161
 O         2.296072        -1.103566        -0.116164
 C         2.641655         0.033590        -0.913267
 C         2.454724        -0.252592        -2.442995
 C         2.949261        -1.542552        -3.020337
 O         1.786551        -2.227847        -3.444448
 C         0.664042        -1.831785        -2.697000
 C         0.986485        -0.465936        -2.115126
 H         0.443817         1.507708         0.670972
 H        -0.652512         0.264423        -0.180433
 H         0.005120        -0.137235         1.304697
 H         3.192842         0.970038        -0.371960
 H         2.752571         0.616828        -3.048515
 H         3.727859        -1.526816        -3.796044
 H         3.531460        -2.023141        -2.156819
 H        -0.266917        -1.871099        -3.389194
 H         0.411987        -2.534396        -1.893933
 H         0.381530         0.302204        -2.423181
