19
Iteration:  1106
 C         0.186414         0.341936         0.329417
 C         1.258360        -0.094611        -0.618284
 O         2.262523        -1.115917        -0.186542
 C         2.747993         0.055322        -0.792861
 C         2.494318        -0.304760        -2.389969
 C         2.934734        -1.645079        -2.986370
 O         1.716510        -2.128043        -3.570774
 C         0.645420        -1.871139        -2.581770
 C         1.022119        -0.443446        -2.120426
 H        -0.687443         0.724604        -0.215466
 H        -0.289374        -0.686707         0.698364
 H         0.395966         1.133120         1.047472
 H         3.594424         0.711463        -0.345407
 H         2.772893         0.602378        -2.953400
 H         3.658236        -1.545162        -3.816378
 H         3.447018        -2.207964        -2.217219
 H        -0.215343        -2.093127        -3.130696
 H         0.693275        -2.621000        -1.754597
 H         0.445049         0.310560        -2.510941
