19
Iteration:  1500
 C         0.378826         0.528984         0.417657
 C         1.153591        -0.202326        -0.627295
 O         2.056314        -1.339848        -0.332800
 C         2.610167        -0.231014        -0.846996
 C         2.456435        -0.114500        -2.401358
 C         2.970639        -1.283770        -3.244713
 O         2.002625        -2.440386        -2.935152
 C         0.682548        -1.808194        -2.829824
 C         0.921720        -0.372550        -2.172725
 H         0.136562         1.508594         0.218485
 H        -0.576579        -0.041165         0.711457
 H         1.099022         0.687151         1.329493
 H         3.265679         0.409936        -0.218826
 H         2.706729         0.897953        -2.628845
 H         2.872730        -1.114116        -4.320858
 H         4.018001        -1.553951        -3.238908
 H         0.051573        -1.697520        -3.710843
 H         0.160471        -2.378832        -2.141762
 H         0.187646         0.421835        -2.471361
