19
Iteration:  4835charge 0 multiplicity 1
 C         0.191633         0.388723         0.270449
 C         1.202802        -0.264619        -0.616614
 O         1.719799        -1.618229        -0.425809
 C         2.698075        -0.382663        -0.605220
 C         2.838266        -0.307028        -2.140768
 C         3.028330        -1.589748        -3.010931
 O         1.735059        -2.137199        -3.252583
 C         0.682451        -1.247468        -2.935314
 C         1.251105        -0.061227        -2.132498
 H         0.065012        -0.113711         1.164897
 H         0.449848         1.527937         0.444526
 H        -0.709787         0.387482        -0.279055
 H         3.460356        -0.321238         0.067726
 H         3.527460         0.633759        -2.379668
 H         3.557534        -1.049565        -3.901412
 H         3.609134        -2.463528        -2.799351
 H         0.205622        -0.977846        -3.810296
 H        -0.040021        -1.980350        -2.404343
 H         0.820964         0.872733        -2.427377
