19
Iteration:  1560charge 0 multiplicity 1
 C         0.259926         0.406913         0.369793
 C         1.239265        -0.176454        -0.592667
 O         2.120959        -1.325972        -0.384849
 C         2.692750        -0.157335        -0.870662
 C         2.437457        -0.195583        -2.435886
 C         2.940707        -1.331885        -3.173754
 O         1.932048        -2.341004        -2.997495
 C         0.671659        -1.779926        -2.656195
 C         0.970816        -0.322822        -2.180894
 H         0.200722         1.530562         0.087158
 H        -0.695831        -0.003556         0.227920
 H         0.495853         0.213967         1.333253
 H         3.441028         0.323306        -0.286812
 H         2.852879         0.831082        -2.908612
 H         2.784989        -1.033780        -4.189954
 H         3.927649        -1.723829        -2.905025
 H        -0.024420        -1.739846        -3.460635
 H         0.292669        -2.520321        -1.856621
 H         0.279845         0.342992        -2.662863
