19
Iteration:   659charge 0 multiplicity 1
 C         0.187010         0.276986         0.324778
 C         1.275796        -0.125184        -0.671043
 O         2.124345        -1.233910        -0.231363
 C         2.741071        -0.027773        -0.893672
 C         2.549859        -0.186241        -2.440511
 C         2.915729        -1.385612        -3.236851
 O         1.872857        -2.379917        -3.082998
 C         0.621647        -1.753144        -2.587641
 C         0.997513        -0.347337        -2.147392
 H        -0.253407         1.275486         0.225937
 H        -0.581750        -0.555149         0.283240
 H         0.602839         0.295715         1.292717
 H         3.520815         0.445998        -0.290841
 H         2.791909         0.683073        -2.941026
 H         3.053999        -1.154605        -4.257708
 H         3.790788        -1.887188        -2.828643
 H        -0.002854        -1.883040        -3.492862
 H         0.234022        -2.290437        -1.735031
 H         0.378695         0.342388        -2.621694
