19
Iteration:    43charge 0 multiplicity 1
 C         0.343180         0.343198         0.463934
 C         1.151666        -0.076145        -0.704852
 O         2.174706        -1.068850        -0.254869
 C         2.617275         0.156746        -0.848985
 C         2.525065        -0.277787        -2.332339
 C         2.978179        -1.641520        -2.929253
 O         1.754758        -2.183236        -3.553405
 C         0.728170        -1.967289        -2.602494
 C         0.960072        -0.473310        -2.199916
 H         0.780539         1.136506         1.011806
 H        -0.764672         0.507924         0.314584
 H         0.273238        -0.524156         1.062747
 H         3.285295         0.749478        -0.343127
 H         2.841122         0.527477        -2.995706
 H         3.693261        -1.507623        -3.737194
 H         3.297298        -2.265711        -2.138143
 H        -0.192497        -2.120041        -3.117216
 H         0.890754        -2.618467        -1.698028
 H         0.327412         0.265850        -2.824878
