19
Iteration:  2258
 C         0.263469         0.364971         0.297139
 C         1.180776        -0.276863        -0.606724
 O         2.210527        -1.212006        -0.174062
 C         2.625756        -0.053837        -0.881807
 C         2.562497        -0.101904        -2.391912
 C         2.945207        -1.400487        -3.213167
 O         1.846211        -2.357974        -3.104110
 C         0.610918        -1.778152        -2.763699
 C         1.032609        -0.448712        -2.125822
 H        -0.394942         1.081073        -0.194843
 H        -0.379504        -0.410108         0.873200
 H         0.860389         1.013152         0.915777
 H         3.309961         0.623668        -0.132860
 H         2.751480         0.860720        -2.922926
 H         2.970219        -1.113411        -4.266191
 H         3.880984        -1.910504        -2.965457
 H        -0.129479        -1.854066        -3.535391
 H         0.199757        -2.358783        -1.884363
 H         0.324221         0.392299        -2.426203
