19
Iteration:   681
 C         0.244229         0.475030         0.327973
 C         1.230892        -0.206046        -0.567257
 O         2.099062        -1.236477        -0.260497
 C         2.720367        -0.135437        -0.840478
 C         2.483595        -0.154708        -2.367723
 C         2.911923        -1.379396        -3.291881
 O         1.914663        -2.386408        -3.178154
 C         0.726281        -1.802557        -2.612968
 C         0.960978        -0.376771        -2.106209
 H        -0.350011         1.194592        -0.288068
 H        -0.477602        -0.430383         0.558914
 H         0.505050         0.959093         1.218443
 H         3.573515         0.336652        -0.289304
 H         2.672519         0.731225        -2.857028
 H         2.951909        -1.071619        -4.327205
 H         3.846525        -1.881366        -3.008560
 H        -0.125584        -1.849257        -3.346638
 H         0.521496        -2.435529        -1.759577
 H         0.278403         0.238908        -2.603194
