19
Iteration:  2641
 C         0.397089         0.548908         0.331226
 C         1.148002        -0.256719        -0.647266
 O         2.055681        -1.299006        -0.208119
 C         2.627330        -0.171586        -0.802606
 C         2.441612        -0.149187        -2.354487
 C         2.946935        -1.300062        -3.261414
 O         2.009122        -2.325475        -3.148973
 C         0.711830        -1.837088        -2.722680
 C         0.869972        -0.475997        -2.120966
 H        -0.149883         1.351007        -0.122942
 H        -0.270543        -0.128822         0.980373
 H         1.063123         1.053829         1.125140
 H         3.334685         0.313855        -0.255597
 H         2.487877         0.900493        -2.699499
 H         3.150585        -0.979420        -4.286741
 H         3.886922        -1.803042        -2.970512
 H         0.077199        -1.862902        -3.627606
 H         0.393945        -2.600192        -2.047591
 H         0.226092         0.309792        -2.666113
