19
Iteration:  4261charge 0 multiplicity 1
 C         0.234364         0.530321         0.446936
 C         1.215736        -0.239687        -0.586903
 O         1.755031        -1.532190        -0.376794
 C         2.634882        -0.412196        -0.627003
 C         2.779036        -0.286971        -2.166701
 C         3.074450        -1.653612        -2.971153
 O         1.797821        -1.989499        -3.582863
 C         0.686138        -1.450733        -2.887859
 C         1.131064        -0.189736        -2.157602
 H         0.549782         0.259371         1.472556
 H         0.331275         1.584714         0.301996
 H        -0.795488         0.219807         0.095753
 H         3.439931        -0.204191         0.236038
 H         3.337225         0.631998        -2.410435
 H         3.892754        -1.688012        -3.732359
 H         3.275231        -2.435061        -2.163839
 H        -0.193430        -1.207580        -3.501566
 H         0.332398        -2.160752        -2.004230
 H         0.853355         0.648159        -2.782462
