19
Iteration:  1173
 C         0.318789         0.218863         0.376136
 C         1.224114        -0.224951        -0.638057
 O         2.210599        -1.176637        -0.369926
 C         2.676447         0.066553        -0.930308
 C         2.476365        -0.125344        -2.412318
 C         2.960005        -1.560030        -2.894766
 O         1.802627        -2.340944        -3.138261
 C         0.614894        -1.723709        -2.798501
 C         0.985586        -0.336825        -2.153462
 H        -0.043113         1.354861         0.365510
 H        -0.585384        -0.486463         0.346937
 H         0.913072         0.214753         1.415553
 H         3.348515         0.599625        -0.318747
 H         2.696749         0.664808        -3.198902
 H         3.602533        -1.487616        -3.853596
 H         3.486423        -2.133700        -2.154664
 H         0.059897        -1.479177        -3.723157
 H        -0.092994        -2.345282        -2.155105
 H         0.281363         0.476804        -2.408874
