19
Iteration:  2709charge 0 multiplicity 1
 C         0.225768         0.220307         0.395394
 C         1.191042        -0.193039        -0.664372
 O         2.134250        -1.220086        -0.262248
 C         2.716932        -0.027329        -0.887661
 C         2.550918        -0.133662        -2.370061
 C         2.872459        -1.407221        -3.194066
 O         1.888119        -2.389494        -2.984028
 C         0.634377        -1.736866        -2.715153
 C         1.062772        -0.308201        -2.286465
 H        -0.076290         1.327389         0.450497
 H        -0.639539        -0.410296         0.198598
 H         0.592184         0.149755         1.526947
 H         3.560631         0.466235        -0.226944
 H         2.672524         0.820193        -3.023188
 H         2.859145        -1.242495        -4.273478
 H         3.897244        -1.894899        -2.995837
 H        -0.015144        -1.834625        -3.607900
 H         0.196976        -2.233417        -1.916759
 H         0.497251         0.506254        -2.743815
