19
Iteration:   159charge 0 multiplicity 1
 C         0.355512         0.324581         0.448241
 C         1.222321        -0.067263        -0.680561
 O         1.968006        -1.302404        -0.451198
 C         2.676215        -0.025758        -0.941718
 C         2.475628        -0.185020        -2.437762
 C         2.977008        -1.465457        -3.012691
 O         1.919259        -2.302059        -3.069926
 C         0.679952        -1.765777        -2.629384
 C         0.958960        -0.351424        -2.152857
 H        -0.296859         1.122956         0.074306
 H        -0.162910        -0.660803         0.746856
 H         0.849114         0.639207         1.371663
 H         3.605906         0.221550        -0.392692
 H         2.797580         0.692215        -3.033261
 H         3.299851        -1.281788        -4.092302
 H         3.931859        -1.957906        -2.570888
 H         0.020514        -1.685578        -3.579796
 H         0.243528        -2.457490        -1.872811
 H         0.312686         0.346004        -2.661525
