19
Iteration:  1930charge 0 multiplicity 1
 C         0.189482         0.083483         0.436619
 C         1.220053        -0.198159        -0.672391
 O         2.228796        -1.169369        -0.377991
 C         2.689188         0.049860        -0.901728
 C         2.508174        -0.125718        -2.500564
 C         2.947807        -1.529152        -3.039374
 O         1.805012        -2.419419        -2.897794
 C         0.645622        -1.617781        -2.777054
 C         1.030877        -0.256710        -2.217588
 H        -0.175402         1.233100         0.263692
 H        -0.664756        -0.660753         0.317467
 H         0.683560         0.022638         1.359487
 H         3.578004         0.470815        -0.436945
 H         2.790016         0.790067        -3.084870
 H         3.141470        -1.396869        -4.109285
 H         3.826056        -1.910462        -2.487100
 H         0.088118        -1.473505        -3.732002
 H        -0.099640        -2.208333        -2.113405
 H         0.470790         0.554682        -2.719946
