19
Iteration:  2862charge 0 multiplicity 1
 C         0.183889         0.296462         0.398882
 C         1.251607        -0.265968        -0.655786
 O         2.267034        -1.282939        -0.297734
 C         2.631311         0.037570        -0.849935
 C         2.529024        -0.126212        -2.414676
 C         2.950347        -1.488661        -3.103309
 O         1.814422        -2.363527        -3.174442
 C         0.619239        -1.687611        -2.654796
 C         1.004324        -0.296218        -2.197716
 H        -0.597371         0.779103        -0.165376
 H        -0.374211        -0.500200         0.881985
 H         0.611310         0.926796         1.272189
 H         3.328317         0.624987        -0.253492
 H         2.941755         0.714589        -3.039273
 H         3.380459        -1.438043        -4.157790
 H         3.698089        -2.044671        -2.418283
 H        -0.158697        -1.681164        -3.432875
 H         0.302215        -2.349835        -1.849528
 H         0.482425         0.548220        -2.783671
