19
Iteration:  1008charge 0 multiplicity 1
 C         0.362855         0.527627         0.362134
 C         1.176425        -0.184712        -0.633780
 O         2.114374        -1.234963        -0.210583
 C         2.617525        -0.106076        -0.875837
 C         2.477255        -0.182902        -2.402578
 C         2.974478        -1.376478        -3.139996
 O         1.805988        -2.236483        -3.489233
 C         0.748162        -2.007280        -2.439008
 C         0.944979        -0.448975        -2.157221
 H         0.431553         1.591803         0.178155
 H        -0.781477         0.219852         0.366726
 H         0.721019         0.331975         1.348353
 H         3.346015         0.617363        -0.231947
 H         2.728509         0.787316        -2.867349
 H         3.485313        -1.065967        -4.054732
 H         3.561826        -2.023379        -2.428150
 H        -0.231452        -2.257146        -2.689603
 H         1.151109        -2.558722        -1.574750
 H         0.186777         0.115620        -2.655991
