19
Iteration:  1943
 C         0.232244         0.144271         0.370846
 C         1.239880        -0.269362        -0.659724
 O         2.250232        -1.222795        -0.262570
 C         2.671581         0.124015        -0.952518
 C         2.572992        -0.117026        -2.405572
 C         2.925420        -1.497053        -3.083608
 O         1.819164        -2.407361        -2.951416
 C         0.609451        -1.637462        -2.793921
 C         0.963631        -0.325267        -2.231269
 H        -0.003983         1.342767         0.296005
 H        -0.760521        -0.254313         0.363247
 H         0.576263        -0.042744         1.365265
 H         3.257141         0.836215        -0.163375
 H         2.898376         0.714457        -3.227553
 H         3.160458        -1.299583        -4.193932
 H         3.785303        -2.200011        -2.779692
 H         0.199925        -1.537278        -3.860768
 H        -0.090226        -2.166055        -2.043796
 H         0.241284         0.490402        -2.482078
