19
Iteration:  1437
 C         0.192905         0.284961         0.379334
 C         1.218250        -0.134848        -0.629274
 O         2.180610        -1.170318        -0.205408
 C         2.663921         0.055937        -0.850616
 C         2.552643        -0.207490        -2.333391
 C         2.986656        -1.588370        -3.069668
 O         1.722556        -2.277046        -3.407294
 C         0.690825        -1.775781        -2.671765
 C         1.052089        -0.389864        -2.154456
 H        -0.400307         1.140658         0.020279
 H        -0.495629        -0.551114         0.533341
 H         0.732854         0.609641         1.330727
 H         3.485937         0.620503        -0.275909
 H         3.002779         0.709212        -2.998071
 H         3.412749        -1.340334        -4.065400
 H         3.619078        -2.284344        -2.453195
 H        -0.216627        -1.928570        -3.321982
 H         0.575720        -2.363596        -1.663128
 H         0.492964         0.486232        -2.579799
