19
Iteration:  3876
 C         0.147154         0.279905         0.361996
 C         1.283592        -0.184202        -0.596005
 O         2.017241        -1.380150        -0.196672
 C         2.776925        -0.208814        -0.645040
 C         2.745030        -0.332751        -2.207795
 C         2.871394        -1.711786        -2.826080
 O         1.719614        -1.997829        -3.694530
 C         0.604909        -1.448917        -2.899256
 C         1.159811        -0.261753        -2.189063
 H        -0.754229         0.446112        -0.092281
 H         0.011665        -0.483748         1.131765
 H         0.349894         1.292881         0.853922
 H         3.693831         0.097459         0.027471
 H         3.122955         0.456108        -2.906373
 H         3.866118        -1.717383        -3.358966
 H         2.909558        -2.402623        -2.081427
 H        -0.092827        -0.931399        -3.668488
 H         0.121990        -2.131310        -2.146923
 H         0.861576         0.715729        -2.726625
