19
Iteration:  4579charge 0 multiplicity 1
 C         0.379499         0.371812         0.439218
 C         1.112746        -0.184614        -0.608338
 O         1.653707        -1.516491        -0.478339
 C         2.565911        -0.480352        -0.624824
 C         2.725800        -0.295794        -2.180802
 C         3.008879        -1.512358        -3.027176
 O         1.817162        -2.236613        -3.157919
 C         0.761450        -1.314487        -3.046525
 C         1.266233        -0.028621        -2.179365
 H         0.836688         0.031980         1.452320
 H         0.469840         1.474385         0.233513
 H        -0.625653        -0.025135         0.458606
 H         3.217178        -0.364167         0.261017
 H         3.354426         0.595678        -2.486723
 H         3.384318        -1.281603        -4.073512
 H         3.736201        -2.203391        -2.560490
 H         0.435908        -0.957681        -4.164646
 H        -0.171847        -1.869931        -2.713736
 H         0.914590         0.844906        -2.721274
