19
Iteration:  2018charge 0 multiplicity 1
 C         0.387561         0.480463         0.393746
 C         1.130499        -0.236686        -0.673203
 O         2.066031        -1.295015        -0.224829
 C         2.649511        -0.126147        -0.875388
 C         2.478235        -0.157017        -2.357109
 C         2.921346        -1.293277        -3.209964
 O         1.986576        -2.381410        -3.084410
 C         0.682311        -1.842654        -2.758827
 C         0.920204        -0.398954        -2.197537
 H        -0.022596         1.650948         0.312929
 H        -0.625014         0.035291         0.713500
 H         1.090821         0.392620         1.197408
 H         3.378416         0.574783        -0.234931
 H         3.014044         0.771575        -2.784372
 H         2.907888        -0.976670        -4.245652
 H         3.897615        -1.767104        -2.981745
 H        -0.043846        -1.828148        -3.555655
 H         0.335941        -2.552237        -1.889231
 H         0.139811         0.274237        -2.670223
