19
Iteration:  4180
 C         0.143983         0.277395         0.382732
 C         1.216526        -0.221428        -0.569241
 O         1.969310        -1.455262        -0.259341
 C         2.739554        -0.275973        -0.559239
 C         2.773232        -0.366913        -2.219620
 C         3.003545        -1.812702        -2.881583
 O         1.681914        -2.052664        -3.570317
 C         0.609557        -1.206148        -3.050659
 C         1.219802        -0.135441        -2.112712
 H         0.253455         0.333538         1.468411
 H        -0.127472         1.299283        -0.062508
 H        -0.608558        -0.519913         0.271740
 H         3.232242         0.268583         0.123904
 H         3.338200         0.372254        -2.743671
 H         3.811148        -1.617892        -3.578965
 H         3.232721        -2.597504        -2.220287
 H         0.261719        -0.722220        -3.968141
 H        -0.353875        -1.835130        -2.638327
 H         1.011469         0.908901        -2.488824
