19
Iteration:  1972
 C         0.232660         0.344505         0.344764
 C         1.237516        -0.266995        -0.639383
 O         2.305212        -1.195484        -0.118910
 C         2.723705        -0.030978        -0.879330
 C         2.434107        -0.156559        -2.378744
 C         2.916872        -1.401645        -3.168303
 O         1.858491        -2.405606        -3.052538
 C         0.635586        -1.704416        -2.875581
 C         0.913592        -0.468556        -2.174367
 H         0.292250         1.493479         0.290347
 H        -0.909742         0.181541         0.111778
 H         0.541351         0.147153         1.342098
 H         3.433419         0.568413        -0.408288
 H         2.517467         0.719677        -2.939677
 H         3.105122        -1.094967        -4.189492
 H         3.807236        -1.819165        -2.730509
 H         0.311660        -1.517851        -3.881500
 H        -0.124216        -2.373598        -2.393995
 H         0.236284         0.389996        -2.421781
