19
Iteration:  2891charge 0 multiplicity 1
 C         0.339137         0.368799         0.409161
 C         1.227006        -0.138865        -0.660820
 O         2.024933        -1.258231        -0.295251
 C         2.726443        -0.072886        -0.944632
 C         2.496924        -0.121515        -2.438402
 C         3.001847        -1.402653        -3.051161
 O         1.870798        -2.279146        -3.239352
 C         0.669687        -1.825077        -2.639341
 C         0.911008        -0.455657        -2.111591
 H        -0.356818         1.140728         0.119726
 H        -0.563445        -0.340896         0.390797
 H         0.948513         0.434081         1.392250
 H         3.604676         0.421645        -0.282628
 H         2.840427         0.786887        -2.958397
 H         3.543258        -1.340582        -3.975804
 H         3.595027        -1.848492        -2.308089
 H        -0.173334        -1.709191        -3.342256
 H         0.392836        -2.642628        -1.822359
 H         0.320485         0.343389        -2.651634
