19
Iteration:   732
 C         0.439879         0.655883         0.425616
 C         1.185540        -0.188199        -0.595538
 O         1.946297        -1.347221        -0.147473
 C         2.640117        -0.111713        -0.816143
 C         2.362848        -0.191565        -2.371872
 C         2.966753        -1.276193        -3.290686
 O         2.052821        -2.365592        -3.290318
 C         0.726565        -1.991740        -2.707294
 C         0.875299        -0.445469        -2.118160
 H         0.008633         1.466713        -0.007776
 H        -0.290055         0.167708         1.130001
 H         1.254162         1.180258         0.938763
 H         3.379458         0.416204        -0.340429
 H         2.562262         0.728703        -2.964618
 H         2.998333        -0.923600        -4.359818
 H         3.937871        -1.658141        -2.901963
 H        -0.066481        -1.986903        -3.447479
 H         0.629291        -2.781881        -1.957889
 H         0.182964         0.242633        -2.619537
