19
Iteration:  3801charge 0 multiplicity 1
 C         0.302742         0.584509         0.438983
 C         1.177192        -0.208166        -0.533823
 O         1.834395        -1.460078        -0.158825
 C         2.646034        -0.338230        -0.658977
 C         2.623230        -0.389599        -2.246638
 C         3.047845        -1.587380        -3.109376
 O         1.841312        -1.967857        -3.696740
 C         0.675596        -1.609082        -2.797639
 C         1.090625        -0.304476        -2.154184
 H         0.405193         1.579036         0.202774
 H        -0.777424         0.418675         0.507927
 H         0.745807         0.377867         1.529443
 H         3.620308        -0.178176         0.028111
 H         3.119966         0.540889        -2.659647
 H         3.787135        -1.184454        -3.890663
 H         3.612286        -2.322302        -2.465388
 H        -0.294816        -1.413780        -3.413512
 H         0.593995        -2.356865        -2.020867
 H         0.553185         0.484504        -2.631929
