19
Iteration:  3560
 C         0.285904         0.465137         0.424421
 C         1.190092        -0.232980        -0.581705
 O         1.898856        -1.489555        -0.326982
 C         2.650447        -0.206146        -0.810107
 C         2.685962        -0.171446        -2.312353
 C         3.038514        -1.493200        -2.986962
 O         1.778673        -2.186057        -3.449345
 C         0.677459        -1.634217        -2.712669
 C         1.075271        -0.236883        -2.163900
 H        -0.443042        -0.116045         0.860043
 H         0.915826         0.679996         1.289649
 H        -0.169848         1.412836        -0.058951
 H         3.390003         0.013722        -0.140815
 H         3.226275         0.717361        -2.709674
 H         3.612905        -1.377009        -3.916329
 H         3.581231        -2.147522        -2.327400
 H        -0.109511        -1.591217        -3.535832
 H         0.215494        -2.406037        -2.009884
 H         0.636129         0.607274        -2.549715
