19
Iteration:  3276
 C         0.236303         0.389329         0.294558
 C         1.222835        -0.201262        -0.597199
 O         2.135399        -1.383745        -0.176238
 C         2.697341        -0.217739        -0.798821
 C         2.574182        -0.238185        -2.358426
 C         2.984952        -1.393242        -3.176545
 O         1.833707        -2.272321        -3.159502
 C         0.602718        -1.649869        -2.820852
 C         0.979923        -0.293304        -2.166643
 H         0.477328         0.224805         1.291868
 H         0.069227         1.497135         0.152040
 H        -0.888885         0.000548         0.181446
 H         3.544592         0.172212        -0.103214
 H         3.008906         0.745703        -2.737581
 H         3.221229        -0.958607        -4.177853
 H         3.906422        -1.880548        -2.663528
 H         0.094300        -1.531435        -3.729131
 H         0.082131        -2.249899        -2.083744
 H         0.351035         0.589699        -2.495302
