19
Iteration:  2156
 C         0.325699         0.209791         0.456819
 C         1.218203        -0.249951        -0.659322
 O         2.285113        -1.171907        -0.303378
 C         2.647722         0.117250        -0.956852
 C         2.431421        -0.168382        -2.481806
 C         2.982159        -1.561239        -2.903363
 O         1.846904        -2.398385        -3.059223
 C         0.590813        -1.623847        -2.908574
 C         0.916738        -0.338129        -2.163389
 H        -0.065878         1.133701         0.343344
 H        -0.664148        -0.369217         0.244946
 H         0.646962        -0.145624         1.446634
 H         3.435217         0.760623        -0.362132
 H         2.614239         0.554838        -3.248707
 H         3.511368        -1.483065        -3.805263
 H         3.611617        -1.910746        -2.083535
 H         0.097708        -1.407937        -3.856064
 H         0.010982        -2.345449        -2.361496
 H         0.292680         0.582926        -2.345018
