19
Iteration:  4515charge 0 multiplicity 1
 C         0.213456         0.471357         0.273150
 C         1.215722        -0.268104        -0.549324
 O         1.720692        -1.605361        -0.276986
 C         2.630232        -0.486693        -0.577568
 C         2.841133        -0.345658        -2.123168
 C         3.048797        -1.500300        -3.212381
 O         1.729100        -2.246534        -3.234559
 C         0.688107        -1.220960        -3.048376
 C         1.282386        -0.098270        -2.094631
 H         0.460769         0.944324         1.311254
 H        -0.266435         1.439882        -0.264067
 H        -0.663877        -0.153347         0.424899
 H         3.475642        -0.459655         0.096891
 H         3.401913         0.598946        -2.500280
 H         3.077121        -0.870958        -4.137892
 H         3.925795        -2.063249        -2.976815
 H         0.461985        -0.800562        -3.971987
 H        -0.241102        -1.762444        -2.623442
 H         1.070950         0.990455        -2.408050
