19
Iteration:  2665charge 0 multiplicity 1
 C         0.185880         0.505920         0.333942
 C         1.265156        -0.226764        -0.536642
 O         2.096974        -1.348977        -0.208989
 C         2.710379        -0.102921        -0.866980
 C         2.445105        -0.168455        -2.388396
 C         2.881105        -1.273297        -3.298170
 O         1.963507        -2.408108        -3.137828
 C         0.699369        -1.804214        -2.716804
 C         0.977547        -0.431601        -2.099532
 H        -0.185655         1.423543        -0.282778
 H        -0.603791        -0.137542         0.770525
 H         0.605528         1.127795         1.307031
 H         3.606266         0.304560        -0.282068
 H         2.858998         0.862999        -2.772128
 H         3.043715        -1.003130        -4.324047
 H         3.890610        -1.674550        -2.942969
 H         0.080499        -1.746150        -3.589884
 H         0.324075        -2.498703        -2.057902
 H         0.388966         0.327649        -2.626801
