19
Iteration:  3050
 C         0.269700         0.336727         0.491347
 C         1.247389        -0.179107        -0.609251
 O         2.105347        -1.205236        -0.273894
 C         2.628050        -0.003378        -0.909386
 C         2.528543        -0.216538        -2.383942
 C         2.968309        -1.562479        -2.929897
 O         1.802031        -2.228413        -3.489607
 C         0.771488        -1.805526        -2.695015
 C         0.980540        -0.374895        -2.119062
 H        -0.612050         0.879823        -0.101768
 H        -0.155254        -0.455116         1.092396
 H         0.662140         1.104447         1.033475
 H         3.352821         0.627562        -0.330056
 H         2.773739         0.571387        -3.112377
 H         3.683363        -1.372453        -3.773659
 H         3.405326        -2.151146        -2.182107
 H        -0.178748        -1.627641        -3.351374
 H         0.419198        -2.513881        -1.850183
 H         0.354441         0.410328        -2.584696
