19
Iteration:  1004charge 0 multiplicity 1
 C         0.333959         0.506434         0.354782
 C         1.188526        -0.173052        -0.640511
 O         2.130917        -1.231744        -0.231623
 C         2.631297        -0.116015        -0.852656
 C         2.499263        -0.177662        -2.419835
 C         2.990589        -1.372392        -3.123902
 O         1.763751        -2.236953        -3.456067
 C         0.754688        -1.977908        -2.419568
 C         0.954912        -0.468798        -2.180979
 H         0.431683         1.563540         0.122458
 H        -0.744574         0.197217         0.387647
 H         0.684298         0.291207         1.373186
 H         3.264372         0.470429        -0.244055
 H         2.549401         0.798208        -2.910573
 H         3.457746        -1.038474        -4.036672
 H         3.635671        -1.910321        -2.458864
 H        -0.240445        -2.291192        -2.807001
 H         1.101735        -2.521618        -1.557791
 H         0.252825         0.163182        -2.713184
