19
Iteration:   151charge 0 multiplicity 1
 C         0.332289         0.334315         0.471051
 C         1.217251        -0.071781        -0.696105
 O         2.010433        -1.259082        -0.391654
 C         2.680801        -0.032547        -0.916360
 C         2.541025        -0.129669        -2.398532
 C         2.992310        -1.464407        -3.060015
 O         1.859935        -2.320781        -3.089350
 C         0.649774        -1.792361        -2.700151
 C         1.000850        -0.411826        -2.190761
 H        -0.327991         1.156488         0.373818
 H        -0.478666        -0.544586         0.639350
 H         1.050884         0.419229         1.255775
 H         3.422703         0.318141        -0.401519
 H         2.696857         0.785924        -2.966054
 H         3.261947        -1.302662        -4.136556
 H         3.780597        -1.957675        -2.402175
 H        -0.083112        -1.931450        -3.476269
 H         0.344650        -2.360367        -1.770734
 H         0.382905         0.388026        -2.760303
