19
Iteration:  1671charge 0 multiplicity 1
 C         0.276375         0.367321         0.410135
 C         1.238579        -0.234775        -0.585085
 O         2.338510        -1.091616        -0.121092
 C         2.664418         0.121666        -0.850458
 C         2.476097        -0.320992        -2.398209
 C         2.901991        -1.721369        -2.856519
 O         1.779933        -2.020459        -3.635790
 C         0.643520        -1.863886        -2.800340
 C         0.947701        -0.498641        -2.102033
 H        -0.518291         0.962647        -0.077222
 H        -0.247404        -0.432972         0.939746
 H         0.748829         0.998542         1.166400
 H         3.050718         0.936083        -0.272237
 H         2.753922         0.481383        -3.154936
 H         3.730206        -1.747901        -3.495894
 H         2.949323        -2.310014        -1.942185
 H        -0.253102        -1.943199        -3.386340
 H         0.692101        -2.714045        -2.111375
 H         0.371809         0.255107        -2.606006
