19
Iteration:   535
 C         0.213597         0.139944         0.400488
 C         1.277079        -0.096263        -0.657965
 O         2.237675        -1.158457        -0.233799
 C         2.726840         0.033733        -0.910548
 C         2.540703        -0.166867        -2.486817
 C         2.914258        -1.489497        -3.105575
 O         1.765469        -2.403995        -3.014422
 C         0.624764        -1.673496        -2.798427
 C         0.982709        -0.358505        -2.187846
 H        -0.523193         0.662634        -0.069515
 H        -0.114719        -0.819045         0.972966
 H         0.498753         0.685944         1.338348
 H         3.556510         0.732538        -0.553110
 H         2.628555         0.855597        -2.969038
 H         3.440709        -1.518890        -4.019417
 H         3.589033        -2.020644        -2.395943
 H        -0.042459        -1.510684        -3.735847
 H         0.043824        -2.413156        -2.229638
 H         0.467082         0.548947        -2.630199
