19
Iteration:   132
 C         0.319384         0.284803         0.452524
 C         1.146858        -0.189208        -0.701827
 O         2.170417        -1.178703        -0.194246
 C         2.614156        -0.005706        -0.829609
 C         2.500818        -0.192910        -2.441062
 C         2.996835        -1.477979        -3.104538
 O         1.871733        -2.440339        -3.231361
 C         0.623292        -1.751079        -2.648431
 C         0.961407        -0.264642        -2.280093
 H         0.191625         1.365107         0.203901
 H        -0.673587        -0.114574         0.482505
 H         0.811088         0.107438         1.429497
 H         3.377482         0.689850        -0.242498
 H         3.017681         0.633175        -2.929559
 H         3.305226        -1.268581        -4.117602
 H         3.772703        -1.917099        -2.570214
 H        -0.040278        -1.705831        -3.483403
 H         0.280985        -2.352059        -1.808634
 H         0.278579         0.494512        -2.747270
