19
Iteration:  2558charge 0 multiplicity 1
 C         0.198027         0.249997         0.268103
 C         1.259951        -0.256708        -0.702854
 O         2.232884        -1.270917        -0.267873
 C         2.713287        -0.074968        -0.845313
 C         2.461907        -0.163997        -2.450402
 C         2.924154        -1.351461        -3.243951
 O         1.902583        -2.302527        -2.879282
 C         0.628567        -1.751926        -2.661776
 C         0.957931        -0.312682        -2.176477
 H         0.065664         1.366542        -0.101706
 H        -0.766581        -0.129366         0.168651
 H         0.514548         0.005752         1.306588
 H         3.442865         0.661564        -0.224377
 H         2.703355         0.793191        -3.007555
 H         2.973982        -1.084465        -4.359965
 H         3.887035        -1.875079        -2.956355
 H        -0.054826        -1.768908        -3.630352
 H         0.039571        -2.436865        -1.858787
 H         0.260171         0.450600        -2.445565
