19
Iteration:  2887
 C         0.310863         0.336896         0.406831
 C         1.274717        -0.133819        -0.695050
 O         2.065193        -1.247029        -0.316192
 C         2.721334        -0.084866        -0.933499
 C         2.486537        -0.147745        -2.413238
 C         2.998441        -1.380322        -3.017615
 O         1.854495        -2.296656        -3.227689
 C         0.669343        -1.798212        -2.645879
 C         0.905047        -0.421157        -2.104232
 H        -0.432292         1.167215         0.010598
 H        -0.535865        -0.358171         0.544493
 H         0.833209         0.539152         1.255726
 H         3.496075         0.310648        -0.378620
 H         2.807701         0.742767        -2.926148
 H         3.477691        -1.355681        -4.044502
 H         3.707760        -1.921442        -2.273920
 H        -0.234293        -1.808268        -3.443763
 H         0.442584        -2.468851        -1.904139
 H         0.277534         0.275716        -2.537209
