19
Iteration:  1796
 C         0.357289         0.434715         0.427614
 C         1.211462        -0.211216        -0.606938
 O         2.132485        -1.265996        -0.246168
 C         2.596620         0.010692        -0.820601
 C         2.541749        -0.134503        -2.413731
 C         2.988098        -1.391352        -3.129322
 O         1.845793        -2.407087        -3.259978
 C         0.643730        -1.813621        -2.699262
 C         0.950021        -0.426004        -2.180229
 H         0.093980         1.415572         0.158173
 H        -0.636524        -0.151960         0.539239
 H         0.755294         0.373449         1.502577
 H         3.306452         0.584779        -0.278761
 H         2.816674         0.742019        -2.865927
 H         3.311270        -0.979496        -4.146202
 H         3.853279        -1.930237        -2.758068
 H        -0.027012        -1.763600        -3.622585
 H         0.143882        -2.568046        -2.007691
 H         0.214023         0.287562        -2.581459
