19
Iteration:  3035charge 0 multiplicity 1
 C         0.198940         0.382478         0.436701
 C         1.204801        -0.071976        -0.568640
 O         2.189074        -1.174460        -0.135027
 C         2.731186        -0.051198        -0.819416
 C         2.478208        -0.218107        -2.411101
 C         3.003002        -1.580636        -3.033824
 O         1.843424        -2.210671        -3.575103
 C         0.624751        -1.840831        -2.692782
 C         0.957116        -0.394465        -2.167696
 H        -0.630479         0.914835         0.092717
 H        -0.322219        -0.545941         0.794334
 H         0.682623         0.914307         1.378998
 H         3.558199         0.388009        -0.377810
 H         2.817129         0.734255        -2.839772
 H         3.729449        -1.576776        -3.821303
 H         3.378344        -2.266719        -2.232910
 H        -0.186342        -2.068332        -3.250821
 H         0.712120        -2.558218        -1.874859
 H         0.315801         0.404786        -2.665996
