19
Iteration:  2201
 C         0.223706         0.030026         0.364589
 C         1.233594        -0.128169        -0.675620
 O         2.224553        -1.120813        -0.319511
 C         2.695994         0.116909        -0.965733
 C         2.512381        -0.185505        -2.470038
 C         2.971587        -1.600906        -2.936389
 O         1.785540        -2.368768        -3.094927
 C         0.590503        -1.653542        -2.723995
 C         1.012811        -0.265117        -2.174120
 H        -0.252328         0.927153         0.248158
 H        -0.621593        -0.781075         0.593732
 H         0.836215        -0.003784         1.225402
 H         3.470682         0.833253        -0.269117
 H         2.781057         0.575179        -3.192202
 H         3.470844        -1.468205        -3.836599
 H         3.690546        -1.928922        -2.175696
 H         0.049818        -1.671850        -3.639373
 H         0.031924        -2.201035        -1.974551
 H         0.445816         0.663694        -2.603459
