19
Iteration:  4779charge 0 multiplicity 1
 C         0.228071         0.405463         0.368259
 C         1.195007        -0.287204        -0.629397
 O         1.712699        -1.529070        -0.254408
 C         2.642777        -0.473350        -0.538689
 C         2.853622        -0.373458        -2.138403
 C         3.003526        -1.465903        -3.153088
 O         1.726896        -2.265635        -3.229872
 C         0.729018        -1.149388        -3.138210
 C         1.236972        -0.175937        -2.139842
 H         0.605805         0.522152         1.313187
 H         0.065651         1.468549        -0.066208
 H        -0.709656        -0.052603         0.410713
 H         3.284527        -0.070547         0.177205
 H         3.413339         0.624075        -2.460668
 H         3.342360        -0.838093        -4.103044
 H         3.770155        -2.202442        -2.940674
 H         0.651180        -0.776850        -4.104841
 H        -0.204608        -1.716059        -2.851161
 H         1.013365         0.845253        -2.415000
