19
Iteration:  2078charge 0 multiplicity 1
 C         0.250260         0.410353         0.374406
 C         1.276768        -0.135403        -0.606539
 O         2.037426        -1.333178        -0.292369
 C         2.746272        -0.187681        -0.829561
 C         2.422324        -0.139807        -2.373657
 C         2.909297        -1.318792        -3.351796
 O         1.976261        -2.397473        -2.947386
 C         0.694207        -1.763429        -2.690344
 C         0.944543        -0.351105        -2.217496
 H        -0.380672         1.070523        -0.177714
 H        -0.279399        -0.426819         0.831257
 H         0.723213         1.066986         1.255220
 H         3.506555         0.221338        -0.292993
 H         2.711572         0.812660        -2.792198
 H         2.904906        -0.983171        -4.372604
 H         3.925695        -1.624257        -3.127256
 H         0.061251        -1.749876        -3.631637
 H         0.274071        -2.369646        -1.966690
 H         0.361872         0.364825        -2.767251
