19
Iteration:  3355
 C         0.300262         0.314663         0.408155
 C         1.222399        -0.267549        -0.648033
 O         1.980916        -1.381756        -0.292752
 C         2.678935        -0.059228        -0.814688
 C         2.597211        -0.139296        -2.341174
 C         2.991141        -1.562735        -2.984599
 O         1.836448        -2.256939        -3.298923
 C         0.637504        -1.590993        -2.802516
 C         1.002648        -0.254549        -2.200418
 H         0.813286         1.183231         0.959380
 H        -0.633355         0.708670         0.111451
 H         0.259018        -0.346662         1.302034
 H         3.552682         0.167406        -0.153681
 H         2.893370         0.793586        -2.902297
 H         3.597647        -1.330565        -3.899142
 H         3.684950        -2.122045        -2.262997
 H        -0.076559        -1.518473        -3.551347
 H         0.209417        -2.329456        -2.112600
 H         0.403411         0.596882        -2.660906
