19
Iteration:  2332charge 0 multiplicity 1
 C         0.448898         0.533175         0.423562
 C         1.037865        -0.286717        -0.716487
 O         2.039218        -1.361336        -0.342697
 C         2.567284        -0.224181        -0.925149
 C         2.433846        -0.100945        -2.411124
 C         2.883979        -1.230391        -3.279707
 O         2.074749        -2.404276        -2.884920
 C         0.770557        -1.866674        -2.637259
 C         0.918216        -0.325380        -2.207637
 H         0.578328         1.530656         0.286473
 H        -0.694939         0.283998         0.568403
 H         1.007164         0.368267         1.288091
 H         3.440107         0.410073        -0.343628
 H         2.742961         0.886007        -2.738384
 H         2.738255        -0.850898        -4.359392
 H         3.938826        -1.522294        -3.182758
 H         0.072049        -2.031928        -3.561221
 H         0.392624        -2.448051        -1.905325
 H         0.182868         0.493380        -2.585946
