19
Iteration:    68
 C         0.245727         0.409489         0.337504
 C         1.227530        -0.306466        -0.561359
 O         2.291569        -1.101644        -0.117101
 C         2.636792         0.037488        -0.913083
 C         2.468715        -0.246537        -2.448158
 C         2.959788        -1.548020        -3.014303
 O         1.786779        -2.223849        -3.449510
 C         0.654692        -1.834420        -2.686573
 C         0.988274        -0.470698        -2.120838
 H         0.480442         1.490435         0.651917
 H        -0.649818         0.299418        -0.146474
 H         0.009852        -0.124557         1.299728
 H         3.177238         0.959003        -0.374105
 H         2.745730         0.619224        -3.056699
 H         3.702077        -1.525104        -3.805417
 H         3.501437        -2.034830        -2.166657
 H        -0.262915        -1.859254        -3.379606
 H         0.438788        -2.537418        -1.872211
 H         0.380454         0.304324        -2.437976
