19
Iteration:  2856charge 0 multiplicity 1
 C         0.160875         0.247850         0.405508
 C         1.250907        -0.268957        -0.674239
 O         2.267067        -1.250244        -0.284161
 C         2.626068         0.053600        -0.861335
 C         2.602356        -0.142510        -2.434485
 C         2.957644        -1.475228        -3.097610
 O         1.762584        -2.370050        -3.160324
 C         0.629824        -1.662373        -2.690949
 C         1.034276        -0.329747        -2.180753
 H        -0.522415         0.964500        -0.171747
 H        -0.237670        -0.568248         1.048288
 H         0.497578         0.947558         1.122556
 H         3.225542         0.672236        -0.209578
 H         2.911231         0.728348        -2.977489
 H         3.304546        -1.461403        -4.120476
 H         3.690440        -1.992167        -2.514902
 H        -0.184603        -1.717282        -3.503049
 H         0.256262        -2.274504        -1.833273
 H         0.396923         0.422117        -2.552435
