19
Iteration:  3912
 C         0.112439         0.244150         0.235668
 C         1.248052        -0.266411        -0.570727
 O         2.037222        -1.391024        -0.127769
 C         2.783066        -0.165239        -0.665512
 C         2.748823        -0.369043        -2.209804
 C         2.957546        -1.741635        -2.891616
 O         1.644244        -2.005012        -3.627132
 C         0.611985        -1.327938        -2.879413
 C         1.226367        -0.195834        -2.144575
 H        -0.765306        -0.245006        -0.066308
 H         0.304105        -0.065542         1.264010
 H         0.092047         1.334405         0.254292
 H         3.469715         0.258976         0.008398
 H         3.088901         0.493040        -2.752345
 H         3.651897        -1.767590        -3.700502
 H         3.144022        -2.528731        -2.229343
 H        -0.180748        -0.959370        -3.572041
 H         0.081178        -2.071711        -2.220982
 H         0.898722         0.627451        -2.630285
