19
Iteration:  4121
 C         0.262312         0.405010         0.482390
 C         1.152883        -0.293407        -0.588179
 O         1.852672        -1.435095        -0.304177
 C         2.663529        -0.285020        -0.657565
 C         2.747060        -0.380903        -2.109059
 C         2.972248        -1.785516        -2.823302
 O         1.761289        -1.926527        -3.685576
 C         0.687031        -1.312037        -3.046145
 C         1.200436        -0.232822        -2.126331
 H         0.968510         0.915486         1.244903
 H        -0.486983         1.051604         0.109714
 H        -0.439458        -0.305569         0.897033
 H         3.570815        -0.054701         0.084748
 H         3.341514         0.483903        -2.591175
 H         3.842856        -1.817656        -3.470247
 H         2.986875        -2.667926        -2.167267
 H         0.074491        -0.955437        -4.003530
 H         0.051989        -2.082609        -2.504932
 H         0.978605         0.710235        -2.588292
