19
Iteration:   324
 C         0.306982         0.244626         0.455191
 C         1.253033        -0.118302        -0.639346
 O         2.125288        -1.166053        -0.346544
 C         2.672549         0.071551        -0.888877
 C         2.556488        -0.098480        -2.471206
 C         2.966894        -1.572640        -2.915632
 O         1.829333        -2.358633        -3.295742
 C         0.601024        -1.790377        -2.681081
 C         0.932740        -0.321961        -2.221069
 H        -0.237605         1.091830         0.317865
 H        -0.293269        -0.793005         0.438920
 H         0.641439         0.148588         1.430166
 H         3.417428         0.530557        -0.291365
 H         2.898984         0.785413        -3.006237
 H         3.625605        -1.588716        -3.722273
 H         3.611991        -2.120152        -2.117179
 H        -0.184264        -1.955528        -3.398107
 H         0.339510        -2.344516        -1.722996
 H         0.378204         0.546993        -2.548810
