19
Iteration:  3478charge 0 multiplicity 1
 C         0.219708         0.494481         0.281398
 C         1.277669        -0.161643        -0.587638
 O         2.095589        -1.305704        -0.113873
 C         2.732709        -0.238545        -0.713276
 C         2.626341        -0.336831        -2.228735
 C         2.904629        -1.602045        -2.958004
 O         1.740694        -1.895702        -3.715354
 C         0.693223        -1.766413        -2.713237
 C         0.987225        -0.454285        -2.122699
 H        -0.619364         0.823989        -0.520738
 H        -0.160390        -0.212068         1.054432
 H         0.443312         1.250375         0.968199
 H         3.585609         0.247728        -0.123013
 H         2.921690         0.524700        -2.810754
 H         3.613282        -1.336644        -3.763086
 H         3.344967        -2.509144        -2.356352
 H        -0.200431        -1.821978        -3.357185
 H         0.806149        -2.533915        -1.930176
 H         0.532822         0.452984        -2.625083
