19
Iteration:  2544charge 0 multiplicity 1
 C         0.148366         0.211443         0.244864
 C         1.222285        -0.247804        -0.629132
 O         2.306208        -1.258980        -0.295311
 C         2.684038        -0.027825        -0.937975
 C         2.564310        -0.095927        -2.435488
 C         2.852580        -1.378700        -3.189591
 O         1.884190        -2.391036        -2.861225
 C         0.598375        -1.657687        -2.692856
 C         1.011821        -0.381695        -2.139268
 H        -0.140271         1.306778         0.237310
 H        -0.700357        -0.409379        -0.027531
 H         0.438521         0.226857         1.364038
 H         3.330917         0.550812        -0.437122
 H         2.759104         0.906621        -2.923157
 H         2.754880        -1.225147        -4.301391
 H         3.876064        -1.775057        -2.971839
 H         0.108009        -1.547287        -3.692979
 H         0.027081        -2.262941        -2.068062
 H         0.479278         0.431576        -2.535701
