19
Iteration:  1211
 C         0.329678         0.341378         0.410927
 C         1.215502        -0.313208        -0.629342
 O         2.245723        -1.191287        -0.221191
 C         2.643207        -0.025340        -0.867487
 C         2.452981        -0.115661        -2.395358
 C         2.880840        -1.497205        -3.146647
 O         1.857695        -2.374745        -2.953409
 C         0.642144        -1.694449        -2.946231
 C         0.944482        -0.401635        -2.170892
 H         0.363493         1.445862         0.309799
 H        -0.718041         0.054365         0.338275
 H         0.585599        -0.100837         1.343531
 H         3.304146         0.760750        -0.284200
 H         2.794331         0.750453        -2.924397
 H         2.941536        -1.214489        -4.202100
 H         3.861960        -1.975206        -2.819312
 H         0.421710        -1.414469        -4.020556
 H        -0.043509        -2.418012        -2.597173
 H         0.480234         0.505669        -2.623657
