19
Iteration:   995
 C         0.293093         0.468580         0.354975
 C         1.203566        -0.177355        -0.678615
 O         2.136638        -1.267053        -0.258044
 C         2.685474        -0.042231        -0.849923
 C         2.463329        -0.159657        -2.398583
 C         2.989279        -1.414443        -3.134129
 O         1.733015        -2.218767        -3.384965
 C         0.797338        -1.915171        -2.432620
 C         0.949593        -0.486868        -2.162427
 H         0.202303         1.508677         0.208093
 H        -0.849593         0.055904         0.214600
 H         0.691136         0.344638         1.321794
 H         3.570249         0.463948        -0.238069
 H         2.514402         0.769946        -2.955523
 H         3.378964        -1.336344        -4.126208
 H         3.811581        -1.931252        -2.627194
 H        -0.033592        -2.183232        -2.921087
 H         0.733580        -2.490052        -1.501967
 H         0.431898         0.169147        -2.706265
