19
Iteration:  3670
 C         0.261167         0.368712         0.441611
 C         1.242144        -0.276436        -0.583739
 O         2.146465        -1.371335        -0.250770
 C         2.684102        -0.144383        -0.790084
 C         2.581004        -0.245320        -2.258549
 C         2.881130        -1.766741        -2.779576
 O         1.796004        -2.058161        -3.639258
 C         0.623941        -1.471472        -2.912655
 C         1.076418        -0.249924        -2.150510
 H         0.271385        -0.261347         1.284483
 H         0.299024         1.473199         0.578300
 H        -0.844228         0.121633         0.003174
 H         3.450642         0.347984        -0.107988
 H         3.135937         0.575131        -2.793370
 H         3.851084        -1.753346        -3.352040
 H         2.979633        -2.433417        -1.863354
 H        -0.170042        -1.254058        -3.724405
 H         0.133067        -2.233999        -2.222336
 H         0.567122         0.591690        -2.404655
