19
Iteration:  3907
 C         0.150833         0.223048         0.249276
 C         1.275136        -0.257250        -0.582615
 O         2.028613        -1.388097        -0.085134
 C         2.740203        -0.182003        -0.700417
 C         2.772182        -0.402699        -2.238776
 C         2.924062        -1.730255        -2.887248
 O         1.694829        -1.996385        -3.626104
 C         0.596749        -1.328350        -2.857990
 C         1.186864        -0.181914        -2.140172
 H        -0.818711        -0.149870        -0.299068
 H         0.256243        -0.228647         1.252827
 H         0.059473         1.344377         0.261396
 H         3.511315         0.332412        -0.002027
 H         3.230233         0.404571        -2.875261
 H         3.743570        -1.594787        -3.675744
 H         3.143368        -2.633146        -2.188057
 H        -0.218426        -0.984342        -3.523859
 H        -0.050554        -1.970035        -2.230750
 H         0.765179         0.818512        -2.676791
