19
Iteration:  4919charge 0 multiplicity 1
 C         0.284946         0.456350         0.341138
 C         1.186046        -0.343811        -0.606244
 O         1.845645        -1.566355        -0.218384
 C         2.640342        -0.449394        -0.513226
 C         2.726762        -0.359516        -2.146716
 C         2.958562        -1.610550        -2.954971
 O         1.775799        -2.092877        -3.392640
 C         0.657833        -1.239640        -3.184020
 C         1.227135        -0.085097        -2.190598
 H         0.707900         0.767603         1.239884
 H        -0.261543         1.319510        -0.233094
 H        -0.538103        -0.215474         0.567658
 H         3.256062        -0.023333         0.195975
 H         3.463784         0.453397        -2.428097
 H         3.600759        -1.286698        -3.824573
 H         3.486398        -2.495201        -2.443796
 H         0.354952        -0.640858        -4.156679
 H        -0.169203        -1.770553        -2.757661
 H         0.915534         0.877786        -2.555431
