19
Iteration:  3212charge 0 multiplicity 1
 C         0.394832         0.305268         0.459921
 C         1.201348        -0.239275        -0.672855
 O         1.946234        -1.341230        -0.344583
 C         2.602869        -0.146377        -0.837865
 C         2.551093        -0.193280        -2.385612
 C         2.981536        -1.378858        -3.164276
 O         1.886217        -2.283305        -2.866987
 C         0.694173        -1.618124        -2.883254
 C         1.000149        -0.310833        -2.252922
 H         0.363334        -0.520971         1.185254
 H         1.012163         1.126363         0.810647
 H        -0.650101         0.478745         0.240003
 H         3.404918         0.304710        -0.098193
 H         2.787202         0.776784        -2.954098
 H         2.983952        -1.312532        -4.232321
 H         3.909474        -1.901506        -2.807750
 H         0.265774        -1.377499        -4.019279
 H        -0.039008        -2.319481        -2.384102
 H         0.475521         0.582869        -2.730429
