19
Iteration:  3685charge 0 multiplicity 1
 C         0.250618         0.344114         0.471349
 C         1.206273        -0.136262        -0.588346
 O         2.127524        -1.383245        -0.192675
 C         2.653887        -0.217887        -0.717131
 C         2.627998        -0.393822        -2.272462
 C         2.968118        -1.679329        -2.812683
 O         1.779361        -1.986301        -3.649612
 C         0.604256        -1.537910        -2.951873
 C         1.013564        -0.244805        -2.195735
 H         0.575511         0.064043         1.532786
 H         0.363350         1.441715         0.372183
 H        -0.776951         0.092986         0.301090
 H         3.482928         0.438525        -0.236738
 H         2.987225         0.386365        -2.938852
 H         3.815410        -1.776909        -3.445257
 H         3.009074        -2.427557        -2.084042
 H        -0.170266        -1.456443        -3.669861
 H         0.463474        -2.391730        -2.118117
 H         0.788874         0.808153        -2.675424
