19
Iteration:  2342charge 0 multiplicity 1
 C         0.388218         0.501584         0.347585
 C         1.173076        -0.256363        -0.654659
 O         2.017963        -1.383089        -0.401991
 C         2.606928        -0.174418        -0.910212
 C         2.472819        -0.057997        -2.412836
 C         2.879395        -1.219675        -3.283457
 O         2.069273        -2.374388        -2.895262
 C         0.695003        -1.875519        -2.555950
 C         0.916577        -0.366519        -2.171393
 H         0.543832         1.523642         0.178424
 H        -0.762479         0.319212         0.599301
 H         0.828013         0.119836         1.228091
 H         3.315635         0.305767        -0.128057
 H         2.872744         0.825559        -2.870996
 H         2.676473        -1.117197        -4.422609
 H         3.934806        -1.496861        -3.115796
 H         0.086983        -1.842244        -3.589426
 H         0.304582        -2.504717        -1.838846
 H         0.171467         0.234993        -2.813513
