19
Iteration:  1951
 C         0.274853         0.218071         0.343180
 C         1.259008        -0.299130        -0.665857
 O         2.271164        -1.203900        -0.230219
 C         2.614170         0.104397        -0.867668
 C         2.573501        -0.155441        -2.408302
 C         2.918572        -1.492135        -3.131340
 O         1.820112        -2.382801        -2.969335
 C         0.573189        -1.683931        -2.847436
 C         0.964653        -0.350162        -2.188066
 H         0.129668         1.396594         0.325794
 H        -0.750543        -0.262969         0.061274
 H         0.612190        -0.056020         1.310871
 H         3.149968         0.898863        -0.402639
 H         2.957557         0.710946        -2.946515
 H         3.058021        -1.231071        -4.155443
 H         3.824485        -1.853988        -2.684456
 H         0.093406        -1.633671        -3.814136
 H        -0.065738        -2.377837        -2.210576
 H         0.351627         0.561878        -2.324046
