19
Iteration:  2237
 C         0.181217         0.207554         0.296491
 C         1.280295        -0.177949        -0.632303
 O         2.258263        -1.208402        -0.217073
 C         2.736164         0.049158        -0.873384
 C         2.493290        -0.223543        -2.379696
 C         2.922563        -1.445947        -3.136814
 O         1.830919        -2.375550        -3.137559
 C         0.608355        -1.741833        -2.676677
 C         0.983929        -0.287897        -2.162814
 H        -0.505472         0.906453        -0.244551
 H        -0.389149        -0.740416         0.566003
 H         0.484516         0.888187         1.090858
 H         3.447391         0.715436        -0.285256
 H         2.752916         0.662364        -3.019938
 H         3.203995        -1.389619        -4.223326
 H         3.788361        -1.906399        -2.624331
 H        -0.024770        -1.647288        -3.594852
 H        -0.025563        -2.378551        -1.916151
 H         0.329578         0.547593        -2.513418
