19
Iteration:  2083
 C         0.274249         0.420006         0.326031
 C         1.248997        -0.204904        -0.589265
 O         2.052887        -1.293127        -0.255534
 C         2.720739        -0.163654        -0.840384
 C         2.473669        -0.163622        -2.417815
 C         2.871714        -1.315368        -3.314303
 O         1.972997        -2.374164        -2.954966
 C         0.679747        -1.740768        -2.708796
 C         0.968354        -0.388488        -2.206163
 H        -0.593375         1.021570        -0.110057
 H        -0.280148        -0.455860         0.864003
 H         0.867774         0.750116         1.109741
 H         3.541243         0.329472        -0.106396
 H         2.753826         0.839192        -2.805673
 H         2.848813        -0.984541        -4.455392
 H         3.903551        -1.714753        -3.178309
 H         0.171549        -1.693307        -3.688381
 H         0.139735        -2.338615        -1.843014
 H         0.336384         0.468802        -2.628939
