19
Iteration:   504charge 0 multiplicity 1
 C         0.214341         0.291609         0.351939
 C         1.251606        -0.184301        -0.669963
 O         2.215724        -1.258295        -0.288028
 C         2.672764        -0.016055        -0.899376
 C         2.526680        -0.187245        -2.380315
 C         2.915740        -1.432413        -3.109946
 O         1.799201        -2.358290        -3.170187
 C         0.680897        -1.750608        -2.605092
 C         0.994915        -0.326770        -2.161334
 H        -0.669686         0.662799        -0.311208
 H        -0.303111        -0.500159         0.933322
 H         0.650914         1.206613         0.886906
 H         3.419663         0.694580        -0.392315
 H         2.747007         0.797748        -2.836588
 H         3.250755        -1.225335        -4.210442
 H         3.759010        -2.021190        -2.605750
 H        -0.209054        -1.770579        -3.314927
 H         0.525017        -2.340383        -1.691376
 H         0.460737         0.496808        -2.664045
