19
Iteration:  2432
 C         0.210074         0.241988         0.400561
 C         1.231468        -0.214909        -0.616439
 O         2.334697        -1.157209        -0.181297
 C         2.645141         0.020567        -0.868239
 C         2.487828        -0.141620        -2.487795
 C         2.992257        -1.494182        -3.093602
 O         1.761411        -2.382768        -3.095511
 C         0.600449        -1.695901        -2.881104
 C         0.970251        -0.392037        -2.151553
 H        -0.559764         0.866267         0.041928
 H        -0.095929        -0.782776         0.934051
 H         0.793710         0.728642         1.211611
 H         3.315900         0.753195        -0.311348
 H         2.687083         0.800989        -2.981088
 H         3.453352        -1.498597        -4.137724
 H         3.657678        -1.991686        -2.369604
 H         0.113874        -1.434449        -3.973719
 H         0.000342        -2.332456        -2.321800
 H         0.400031         0.513577        -2.508088
