19
Iteration:  2690
 C         0.249659         0.287739         0.277999
 C         1.261858        -0.179123        -0.680372
 O         2.103708        -1.248435        -0.162025
 C         2.682163        -0.094858        -0.844691
 C         2.538282        -0.193440        -2.403962
 C         2.957141        -1.328705        -3.297248
 O         1.893851        -2.358914        -3.039533
 C         0.633713        -1.758750        -2.671942
 C         0.944944        -0.358248        -2.143542
 H        -0.069468         1.408522        -0.015562
 H        -0.586394        -0.397886         0.409643
 H         0.636111         0.442882         1.314873
 H         3.401740         0.526150        -0.211940
 H         3.030823         0.738603        -2.785177
 H         2.882517        -0.997497        -4.354628
 H         3.950572        -1.809375        -3.222676
 H        -0.005699        -1.736866        -3.518249
 H         0.232295        -2.468084        -1.917281
 H         0.305537         0.381448        -2.527692
