19
Iteration:  3983charge 0 multiplicity 1
 C         0.356339         0.527790         0.557706
 C         1.178052        -0.124930        -0.582579
 O         1.779670        -1.557619        -0.316417
 C         2.621840        -0.303912        -0.592975
 C         2.671816        -0.315041        -2.152583
 C         3.063859        -1.616290        -2.937481
 O         1.779444        -1.999803        -3.708299
 C         0.695587        -1.576989        -2.932602
 C         1.153909        -0.253555        -2.224191
 H         0.088449        -0.416022         1.220891
 H         0.834991         1.342393         1.141310
 H        -0.442089         1.144742         0.064590
 H         3.430334         0.090074         0.136603
 H         3.191568         0.636971        -2.461516
 H         3.841163        -1.500743        -3.781239
 H         3.255624        -2.642068        -2.374832
 H        -0.187734        -1.382338        -3.550903
 H         0.371350        -2.206041        -2.088962
 H         0.709991         0.675769        -2.781558
