19
Iteration:  2677
 C         0.222877         0.438940         0.297304
 C         1.193010        -0.217203        -0.606116
 O         2.129331        -1.264519        -0.192335
 C         2.706211        -0.181647        -0.803566
 C         2.483553        -0.133747        -2.390377
 C         2.889726        -1.377659        -3.321441
 O         1.945269        -2.372711        -3.114980
 C         0.731682        -1.770621        -2.677391
 C         0.990696        -0.379186        -2.108538
 H        -0.383264         1.320076        -0.294824
 H        -0.605107        -0.273611         0.413580
 H         0.780434         0.683801         1.326202
 H         3.607889         0.348556        -0.239947
 H         2.385306         0.923968        -2.881442
 H         2.860861        -1.052610        -4.352537
 H         3.910305        -1.802600        -3.018832
 H         0.079792        -1.606842        -3.493551
 H         0.225173        -2.375295        -1.995070
 H         0.289584         0.345968        -2.444260
