19
Iteration:   334
 C         0.262308         0.225512         0.436382
 C         1.210128        -0.121457        -0.693255
 O         2.203430        -1.143417        -0.245481
 C         2.696230         0.097360        -0.862801
 C         2.558561        -0.182943        -2.391082
 C         2.997043        -1.522072        -2.970340
 O         1.769986        -2.357119        -3.344121
 C         0.612761        -1.811469        -2.673436
 C         0.951574        -0.300920        -2.245016
 H        -0.178896         1.171505         0.456515
 H        -0.711630        -0.463018         0.305924
 H         0.843818         0.050651         1.292597
 H         3.487881         0.499537        -0.182710
 H         2.789864         0.573445        -3.123577
 H         3.523602        -1.492400        -3.881712
 H         3.466586        -2.078870        -2.104519
 H        -0.238305        -2.004603        -3.276056
 H         0.507170        -2.475098        -1.761152
 H         0.422759         0.499295        -2.734399
