19
Iteration:  3690charge 0 multiplicity 1
 C         0.261974         0.357067         0.480462
 C         1.214069        -0.147146        -0.621312
 O         2.087203        -1.368121        -0.160951
 C         2.672177        -0.201091        -0.706913
 C         2.644970        -0.358226        -2.250710
 C         2.953932        -1.704407        -2.858105
 O         1.771984        -1.959275        -3.656965
 C         0.612516        -1.593476        -2.915771
 C         1.029655        -0.239880        -2.207023
 H         0.652682         0.035124         1.423291
 H         0.314849         1.430106         0.237604
 H        -0.832999         0.032315         0.480465
 H         3.430440         0.247022        -0.138786
 H         3.009982         0.416655        -2.948638
 H         3.831828        -1.730934        -3.573762
 H         3.113899        -2.497362        -2.017420
 H        -0.189757        -1.475631        -3.710671
 H         0.403006        -2.417997        -2.335324
 H         0.792307         0.724130        -2.616997
