19
Iteration:  4552
 C         0.329729         0.447441         0.340058
 C         1.210666        -0.236655        -0.612146
 O         1.632785        -1.636650        -0.359093
 C         2.629087        -0.561681        -0.668191
 C         2.775630        -0.340218        -2.171969
 C         3.127349        -1.417486        -3.086498
 O         1.783319        -2.163929        -3.016101
 C         0.621579        -1.246503        -3.114567
 C         1.229525        -0.050435        -2.225256
 H         0.862055         0.484327         1.235736
 H        -0.080456         1.407786        -0.042756
 H        -0.460638        -0.294512         0.555028
 H         3.402454        -0.546642         0.160207
 H         3.315551         0.605626        -2.310421
 H         3.358619        -1.106861        -4.085906
 H         3.937541        -2.146997        -2.868361
 H         0.247481        -1.075753        -4.187322
 H        -0.197798        -1.717151        -2.572777
 H         0.808219         0.925537        -2.639318
