19
Iteration:  4189
 C         0.093145         0.263784         0.368284
 C         1.273241        -0.193231        -0.598048
 O         1.982750        -1.442145        -0.251709
 C         2.690109        -0.286601        -0.596393
 C         2.805388        -0.407372        -2.100598
 C         2.935614        -1.772460        -2.949701
 O         1.684374        -2.061275        -3.538542
 C         0.698200        -1.221001        -3.031069
 C         1.222096        -0.136830        -2.162813
 H         0.255400         0.202057         1.517111
 H        -0.150281         1.316517         0.095819
 H        -0.715560        -0.309025         0.013089
 H         3.426663         0.188210        -0.013714
 H         3.239641         0.477073        -2.628898
 H         3.635092        -1.737516        -3.771244
 H         3.193023        -2.601374        -2.345457
 H         0.050168        -0.727192        -3.825486
 H        -0.092228        -1.703884        -2.386153
 H         0.818555         0.862456        -2.402067
