19
Iteration:  2144
 C         0.277901         0.224923         0.417960
 C         1.295751        -0.207414        -0.565255
 O         2.251953        -1.160831        -0.271843
 C         2.638992         0.073911        -0.977967
 C         2.435772        -0.186998        -2.447231
 C         3.011176        -1.510520        -3.003922
 O         1.826293        -2.396039        -3.066457
 C         0.626351        -1.659191        -2.885911
 C         0.876483        -0.394639        -2.134980
 H         0.104445         1.255560         0.341238
 H        -0.580442        -0.478176         0.253715
 H         0.586509         0.185481         1.524964
 H         3.394206         0.685801        -0.467538
 H         2.688761         0.723801        -2.963551
 H         3.452531        -1.478893        -3.950079
 H         3.696765        -2.022588        -2.324922
 H         0.407849        -1.316470        -3.884395
 H        -0.208384        -2.189599        -2.572097
 H         0.210167         0.333308        -2.598934
