19
Iteration:  3258charge 0 multiplicity 1
 C         0.307609         0.405361         0.397195
 C         1.227945        -0.230941        -0.628712
 O         1.963245        -1.354665        -0.336026
 C         2.733016        -0.156767        -0.838232
 C         2.523806        -0.166657        -2.336675
 C         3.002443        -1.398810        -3.162313
 O         1.917814        -2.348139        -3.092066
 C         0.628541        -1.615174        -2.821860
 C         0.994180        -0.355140        -2.093857
 H         0.187467        -0.122324         1.456881
 H         0.472756         1.466541         0.408711
 H        -0.650190         0.171556         0.140475
 H         3.591112         0.288132        -0.205769
 H         2.771164         0.821345        -2.802660
 H         3.251400        -1.170302        -4.195455
 H         3.768894        -1.974531        -2.699481
 H         0.111708        -1.253073        -3.863926
 H        -0.037559        -2.360544        -2.233588
 H         0.375721         0.458181        -2.566245
