19
Iteration:   722
 C         0.457883         0.630452         0.356728
 C         1.175238        -0.260301        -0.598571
 O         1.969494        -1.278170        -0.164035
 C         2.636572        -0.132169        -0.822935
 C         2.404377        -0.220698        -2.357878
 C         2.903092        -1.289629        -3.287776
 O         2.004260        -2.349852        -3.268988
 C         0.801760        -1.905724        -2.685820
 C         0.850358        -0.504273        -2.149656
 H        -0.104589         1.290238        -0.210752
 H        -0.225863         0.152532         1.236402
 H         1.206557         1.116010         0.960977
 H         3.282225         0.395285        -0.198150
 H         2.599325         0.802760        -2.634592
 H         3.138867        -0.858627        -4.368950
 H         3.923586        -1.584737        -2.909916
 H         0.021518        -2.024771        -3.397820
 H         0.542366        -2.497115        -1.825505
 H         0.230416         0.303160        -2.402197
