19
Iteration:   319
 C         0.317941         0.194560         0.457704
 C         1.262348        -0.106296        -0.636411
 O         2.102490        -1.186251        -0.386515
 C         2.659231         0.038605        -0.930352
 C         2.521410        -0.105345        -2.477855
 C         2.968996        -1.595544        -2.890745
 O         1.844986        -2.330282        -3.258167
 C         0.620322        -1.775631        -2.669188
 C         0.962804        -0.323521        -2.189784
 H        -0.397557         1.113641         0.168490
 H        -0.336941        -0.613020         0.530497
 H         0.756454         0.372198         1.544580
 H         3.487995         0.683609        -0.351273
 H         2.902979         0.791162        -3.010665
 H         3.717994        -1.520216        -3.793618
 H         3.498982        -2.044088        -2.101823
 H        -0.147994        -1.730636        -3.493352
 H         0.304668        -2.265367        -1.761774
 H         0.246708         0.428480        -2.615571
