19
Iteration:  1095charge 0 multiplicity 1
 C         0.165208         0.419650         0.296387
 C         1.244940        -0.151190        -0.615518
 O         2.294396        -1.124019        -0.089233
 C         2.688104        -0.001112        -0.874399
 C         2.543955        -0.249737        -2.367432
 C         2.917958        -1.609243        -3.017623
 O         1.700694        -2.089470        -3.565822
 C         0.747721        -1.911457        -2.646800
 C         0.958243        -0.506242        -2.060900
 H        -0.553854         0.920052        -0.343105
 H        -0.309654        -0.412348         1.009342
 H         0.575820         1.043783         1.082139
 H         3.513581         0.653269        -0.384495
 H         2.836616         0.538200        -3.077449
 H         3.596239        -1.571802        -3.877538
 H         3.185888        -2.365072        -2.284829
 H        -0.200774        -1.882818        -3.062506
 H         0.846007        -2.675627        -1.840752
 H         0.346766         0.163496        -2.540603
