19
Iteration:  3195charge 0 multiplicity 1
 C         0.262198         0.332228         0.459531
 C         1.247482        -0.207591        -0.673169
 O         2.031669        -1.391399        -0.324791
 C         2.697561        -0.150397        -0.864796
 C         2.544234        -0.067554        -2.396810
 C         2.898601        -1.437586        -3.146493
 O         1.929631        -2.445624        -2.921097
 C         0.668197        -1.617369        -2.905155
 C         0.969962        -0.193853        -2.190058
 H         0.095162        -0.548161         1.247555
 H         0.692971         1.141803         1.079307
 H        -0.628204         0.675120        -0.107524
 H         3.506906         0.243499        -0.289120
 H         3.009791         0.807486        -2.771783
 H         3.074090        -1.131403        -4.242830
 H         3.853393        -1.787086        -2.832513
 H         0.427190        -1.501481        -3.905251
 H        -0.186263        -2.128430        -2.446560
 H         0.264548         0.586852        -2.414092
