19
Iteration:  1011
 C         0.368874         0.541066         0.367636
 C         1.166954        -0.198546        -0.632926
 O         2.096334        -1.241824        -0.188398
 C         2.623422        -0.070429        -0.883156
 C         2.446654        -0.184533        -2.382900
 C         2.952724        -1.396511        -3.150341
 O         1.841524        -2.231653        -3.520897
 C         0.780076        -2.015800        -2.456612
 C         0.936810        -0.449761        -2.123940
 H         0.409006         1.696951         0.222661
 H        -0.627998         0.287358         0.323526
 H         0.799771         0.357140         1.419360
 H         3.313641         0.598817        -0.369881
 H         2.877548         0.765363        -2.824781
 H         3.535626        -1.148403        -4.110777
 H         3.536680        -2.092716        -2.465211
 H        -0.389237        -2.302133        -2.702423
 H         1.128532        -2.606189        -1.565104
 H         0.049696         0.183727        -2.672737
