19
Iteration:  1736
 C         0.245706         0.387713         0.361652
 C         1.209443        -0.218193        -0.625802
 O         2.083657        -1.210920        -0.268183
 C         2.706997        -0.057383        -0.761516
 C         2.508087        -0.185383        -2.405797
 C         2.952457        -1.423420        -3.134083
 O         1.804998        -2.275830        -3.402565
 C         0.737434        -1.858334        -2.528294
 C         1.010692        -0.404099        -2.155039
 H         0.081186         1.575690         0.157402
 H        -0.707943        -0.147923         0.433761
 H         0.861617         0.393870         1.306069
 H         3.431596         0.580816        -0.177748
 H         2.727675         0.676837        -3.179332
 H         3.272369        -1.224776        -4.146995
 H         3.769509        -2.041435        -2.616521
 H        -0.176792        -1.945047        -3.102566
 H         0.676960        -2.444620        -1.634992
 H         0.342490         0.343519        -2.555502
