19
Iteration:   994
 C         0.285204         0.461219         0.350960
 C         1.205374        -0.178187        -0.680639
 O         2.135879        -1.271323        -0.261128
 C         2.697218        -0.026545        -0.849310
 C         2.456686        -0.160274        -2.393759
 C         2.988448        -1.423451        -3.138649
 O         1.738691        -2.216574        -3.376491
 C         0.801762        -1.911258        -2.432824
 C         0.950944        -0.484149        -2.151937
 H         0.161607         1.516927         0.219766
 H        -0.820812         0.044725         0.200573
 H         0.698160         0.345550         1.340577
 H         3.558017         0.442138        -0.288448
 H         2.542751         0.769889        -2.957811
 H         3.357829        -1.373047        -4.145155
 H         3.793234        -1.943808        -2.649654
 H        -0.077056        -2.164618        -2.958963
 H         0.695899        -2.479255        -1.518510
 H         0.416018         0.192245        -2.721293
