19
Iteration:   911
 C         0.296229         0.107494         0.503379
 C         1.229440        -0.221116        -0.634411
 O         2.392768        -1.115583        -0.298951
 C         2.634857         0.106411        -0.932463
 C         2.480157        -0.146052        -2.509052
 C         2.870018        -1.563148        -2.912417
 O         1.772176        -2.406516        -3.028319
 C         0.585326        -1.618526        -2.988495
 C         0.944951        -0.340959        -2.189567
 H        -0.546581         0.650467         0.111878
 H         0.000607        -0.724887         1.117601
 H         0.805172         0.753614         1.167475
 H         3.436188         0.687928        -0.312297
 H         2.866999         0.568771        -3.218316
 H         3.378841        -1.629742        -3.870304
 H         3.435291        -2.014843        -2.041248
 H         0.392138        -1.405945        -4.125368
 H        -0.254765        -2.101021        -2.437375
 H         0.309510         0.552222        -2.425602
