19
Iteration:  3351charge 0 multiplicity 1
 C         0.301134         0.313773         0.397617
 C         1.214348        -0.249861        -0.622792
 O         1.977069        -1.367510        -0.261563
 C         2.697947        -0.076852        -0.782492
 C         2.603504        -0.138830        -2.372175
 C         2.994565        -1.539494        -3.006765
 O         1.834787        -2.309602        -3.312407
 C         0.635264        -1.591947        -2.800596
 C         0.990954        -0.230041        -2.228587
 H         0.717290         1.046105         0.987706
 H        -0.714585         0.726001         0.051154
 H         0.242574        -0.398603         1.366733
 H         3.675876         0.113145        -0.215448
 H         2.981099         0.759712        -2.897432
 H         3.603917        -1.257723        -3.904655
 H         3.668492        -2.022800        -2.242526
 H        -0.161665        -1.360515        -3.585871
 H         0.336002        -2.344424        -2.081005
 H         0.351528         0.598171        -2.542338
