19
Iteration:  3266charge 0 multiplicity 1
 C         0.239038         0.380471         0.350852
 C         1.238769        -0.226138        -0.605034
 O         2.033682        -1.318313        -0.286561
 C         2.713101        -0.241352        -0.847592
 C         2.575458        -0.190082        -2.320396
 C         3.048522        -1.388401        -3.157796
 O         1.891112        -2.319769        -3.122521
 C         0.559219        -1.632943        -2.815169
 C         0.953380        -0.324172        -2.076873
 H         0.534492         0.123060         1.313928
 H         0.426590         1.472448         0.294559
 H        -0.784692         0.124883        -0.042910
 H         3.571587         0.323988        -0.271083
 H         2.750886         0.863128        -2.742046
 H         3.247002        -1.203914        -4.218588
 H         3.978748        -1.975306        -2.801469
 H        -0.042834        -1.375157        -3.719962
 H         0.008879        -2.476331        -2.364333
 H         0.530649         0.665937        -2.459211
