19
Iteration:  2593charge 0 multiplicity 1
 C         0.299272         0.441292         0.495229
 C         1.148516        -0.123700        -0.644982
 O         2.021222        -1.275531        -0.351417
 C         2.651083        -0.125578        -0.855251
 C         2.439716        -0.207764        -2.437387
 C         2.992723        -1.309545        -3.253848
 O         1.989088        -2.386193        -3.078097
 C         0.735696        -1.850005        -2.669349
 C         0.962673        -0.391422        -2.142409
 H         0.078842         1.523830         0.407356
 H        -0.644260        -0.115808         0.700752
 H         0.883686         0.509907         1.351121
 H         3.539548         0.521823        -0.352340
 H         2.591759         0.741710        -2.908209
 H         3.075970        -1.078816        -4.358509
 H         3.959609        -1.678525        -2.893104
 H         0.120304        -1.778778        -3.658818
 H         0.243875        -2.690166        -1.958805
 H         0.180067         0.296772        -2.587363
