19
Iteration:  2580charge 0 multiplicity 1
 C         0.306620         0.373109         0.405288
 C         1.231663        -0.189844        -0.631114
 O         2.061909        -1.285782        -0.273820
 C         2.644202        -0.097547        -0.961661
 C         2.469799        -0.052240        -2.428537
 C         2.902034        -1.337266        -3.184566
 O         1.991105        -2.434311        -3.040294
 C         0.705183        -1.810513        -2.664410
 C         0.940258        -0.370316        -2.169614
 H         0.050556         1.461008         0.071414
 H        -0.601932        -0.148307         0.354746
 H         0.675555         0.116923         1.402898
 H         3.457819         0.337101        -0.220817
 H         2.723232         0.922130        -2.940213
 H         2.934941        -0.982338        -4.267413
 H         3.930530        -1.720647        -2.918600
 H        -0.018021        -1.719575        -3.548685
 H         0.168004        -2.445096        -1.845365
 H         0.387376         0.378910        -2.668920
