19
Iteration:  3062
 C         0.337396         0.339179         0.401203
 C         1.140848        -0.262792        -0.644201
 O         2.142047        -1.252491        -0.339740
 C         2.628889         0.079323        -0.859438
 C         2.514154        -0.201578        -2.397582
 C         3.014159        -1.552729        -2.901742
 O         1.835243        -2.187801        -3.386952
 C         0.606996        -1.738955        -2.668503
 C         0.993801        -0.414586        -2.164907
 H        -0.723408         0.717613         0.084807
 H         0.168930        -0.391946         1.198734
 H         0.887056         1.038445         0.890799
 H         3.437766         0.538557        -0.127369
 H         2.818547         0.670930        -2.990274
 H         3.734176        -1.521064        -3.764467
 H         3.451060        -2.175380        -2.138167
 H        -0.230773        -1.845528        -3.501741
 H         0.451251        -2.511989        -1.840482
 H         0.480694         0.426908        -2.603599
