19
Iteration:  3739
 C         0.195132         0.603780         0.341899
 C         1.225773        -0.198328        -0.507728
 O         1.942559        -1.426067        -0.140703
 C         2.703104        -0.424186        -0.649994
 C         2.672586        -0.356560        -2.187163
 C         2.985069        -1.581911        -3.117076
 O         1.759215        -1.893432        -3.660360
 C         0.710529        -1.622371        -2.757822
 C         1.062261        -0.331958        -2.207884
 H         0.817401         1.189537         1.135939
 H        -0.492775         1.081635        -0.356024
 H        -0.274987        -0.140035         1.019537
 H         3.686989        -0.021446        -0.210048
 H         3.289888         0.446126        -2.588493
 H         3.663775        -1.386994        -3.920091
 H         3.357055        -2.509156        -2.651215
 H        -0.184925        -1.743462        -3.277090
 H         0.762146        -2.503872        -1.995820
 H         0.432272         0.516199        -2.548216
