19
Iteration:  1316charge 0 multiplicity 1
 C         0.321932         0.402103         0.474683
 C         1.172724        -0.138834        -0.618544
 O         2.071295        -1.229088        -0.211057
 C         2.672154        -0.116852        -0.898504
 C         2.521334        -0.180350        -2.394780
 C         2.985615        -1.461806        -3.157135
 O         1.900521        -2.329248        -3.323910
 C         0.650776        -1.781955        -2.671329
 C         0.953680        -0.429825        -2.133589
 H        -0.293298         1.192716         0.057221
 H        -0.361871        -0.262662         0.819769
 H         0.911417         1.057757         1.229494
 H         3.279591         0.517343        -0.433727
 H         2.758351         0.817525        -2.963720
 H         3.519286        -1.113018        -4.033277
 H         3.767626        -1.938492        -2.622486
 H        -0.043788        -1.839159        -3.521734
 H         0.237166        -2.523784        -1.886974
 H         0.287603         0.380375        -2.525074
