19
Iteration:  2735charge 0 multiplicity 1
 C         0.277030         0.183249         0.412248
 C         1.226835        -0.164128        -0.665880
 O         2.156283        -1.278312        -0.413702
 C         2.658264         0.027961        -0.962438
 C         2.555031        -0.138395        -2.443159
 C         2.952755        -1.483762        -3.108108
 O         1.929716        -2.396765        -2.887060
 C         0.606732        -1.616129        -2.754188
 C         0.887613        -0.276093        -2.129348
 H        -0.007079         1.332008         0.604664
 H        -0.626459        -0.481889         0.213136
 H         0.595757        -0.097817         1.372318
 H         3.361250         0.574095        -0.425588
 H         2.734480         0.699100        -3.090765
 H         3.287959        -1.549488        -4.132765
 H         3.770407        -1.858407        -2.528476
 H         0.363585        -1.466713        -3.751885
 H        -0.129359        -2.367899        -2.325856
 H         0.256928         0.496160        -2.533927
