19
Iteration:  2280charge 0 multiplicity 1
 C         0.341898         0.503801         0.430118
 C         1.181860        -0.175644        -0.578450
 O         2.114001        -1.264059        -0.189871
 C         2.666383        -0.116528        -0.846371
 C         2.381745        -0.213904        -2.386032
 C         2.918520        -1.361468        -3.284367
 O         2.004998        -2.422841        -3.103336
 C         0.723887        -1.784674        -2.792142
 C         0.874121        -0.437671        -2.174970
 H        -0.276987         1.304429        -0.041227
 H        -0.401198        -0.240999         0.874276
 H         0.944317         1.022022         1.176843
 H         3.554937         0.547034        -0.282749
 H         2.663071         0.777134        -2.821585
 H         2.989730        -0.903483        -4.249369
 H         3.915243        -1.668867        -2.950314
 H         0.155855        -1.663568        -3.678584
 H         0.205776        -2.593798        -2.221689
 H         0.236692         0.302456        -2.747027
