19
Iteration:  2537charge 0 multiplicity 1
 C         0.141064         0.194239         0.292113
 C         1.281678        -0.245706        -0.606805
 O         2.293634        -1.246960        -0.307904
 C         2.676047         0.052305        -0.919258
 C         2.551927        -0.107566        -2.411662
 C         2.836022        -1.400984        -3.191474
 O         1.857722        -2.445555        -2.856770
 C         0.646709        -1.642968        -2.764817
 C         1.013518        -0.327430        -2.151246
 H        -0.292017         1.234495         0.023032
 H        -0.705643        -0.429917         0.063313
 H         0.371377         0.035265         1.351115
 H         3.677304         0.620053        -0.506142
 H         2.852195         0.838951        -2.916122
 H         2.770239        -1.254413        -4.296253
 H         3.828914        -1.839840        -2.942275
 H         0.135732        -1.640150        -3.794131
 H        -0.103515        -2.302771        -2.072443
 H         0.241543         0.423163        -2.450704
