19
Iteration:   909charge 0 multiplicity 1
 C         0.306180         0.117244         0.505648
 C         1.224554        -0.223604        -0.639906
 O         2.392804        -1.115558        -0.301331
 C         2.640794         0.093421        -0.937476
 C         2.482751        -0.146069        -2.521266
 C         2.850487        -1.565563        -2.898312
 O         1.775213        -2.396355        -3.015219
 C         0.598282        -1.621847        -3.004740
 C         0.928384        -0.330986        -2.184282
 H        -0.525169         0.587962         0.116744
 H        -0.019754        -0.771916         1.129481
 H         0.771085         0.729189         1.184249
 H         3.452517         0.738504        -0.295074
 H         2.866569         0.562276        -3.225737
 H         3.405178        -1.641163        -3.846201
 H         3.505377        -2.005835        -2.050285
 H         0.358302        -1.365904        -4.099190
 H        -0.281924        -2.137537        -2.490881
 H         0.356183         0.497291        -2.420575
