19
Iteration:  1127
 C         0.218780         0.171524         0.371852
 C         1.226424        -0.119664        -0.671069
 O         2.165925        -1.111071        -0.217813
 C         2.706860         0.071396        -0.931793
 C         2.608593        -0.206591        -2.424009
 C         2.957073        -1.626782        -2.947550
 O         1.714252        -2.247622        -3.436406
 C         0.670945        -1.719641        -2.571226
 C         0.986630        -0.363402        -2.149447
 H        -0.643960         0.668649        -0.007554
 H        -0.181763        -0.901454         0.753337
 H         0.596415         0.798085         1.127355
 H         3.602692         0.647918        -0.442657
 H         3.104443         0.549772        -3.047604
 H         3.616791        -1.657013        -3.805115
 H         3.376647        -2.200818        -2.115386
 H        -0.271395        -1.733748        -3.063706
 H         0.664429        -2.446428        -1.689978
 H         0.495456         0.415127        -2.601368
