19
Iteration:  2855charge 0 multiplicity 1
 C         0.160536         0.238285         0.405485
 C         1.241737        -0.266055        -0.670247
 O         2.265573        -1.242788        -0.282564
 C         2.635799         0.056469        -0.861399
 C         2.612508        -0.146498        -2.437651
 C         2.956259        -1.474871        -3.094617
 O         1.755604        -2.368908        -3.158121
 C         0.630842        -1.665605        -2.693633
 C         1.037867        -0.334598        -2.180803
 H        -0.520713         0.968087        -0.166064
 H        -0.215337        -0.560689         1.035444
 H         0.502869         0.940220         1.078208
 H         3.192187         0.660579        -0.234189
 H         2.896680         0.740990        -2.970072
 H         3.305357        -1.437426        -4.136987
 H         3.719545        -2.004034        -2.509198
 H        -0.203208        -1.710768        -3.531671
 H         0.247077        -2.230244        -1.858227
 H         0.385859         0.402755        -2.491515
