19
Iteration:  4740charge 0 multiplicity 1
 C         0.319452         0.389602         0.415015
 C         1.175475        -0.293644        -0.647871
 O         1.637751        -1.588809        -0.374967
 C         2.671619        -0.512265        -0.669123
 C         2.735144        -0.244657        -2.222036
 C         3.118785        -1.572501        -2.874530
 O         1.778082        -2.141801        -3.223040
 C         0.671201        -1.192103        -3.108747
 C         1.226325        -0.101708        -2.233842
 H         1.027543         0.777612         1.329970
 H        -0.227151         1.201120         0.019411
 H        -0.475734        -0.375266         0.870818
 H         3.370001        -0.114347         0.150087
 H         3.232380         0.552142        -2.589338
 H         3.552069        -1.617202        -3.855044
 H         3.799751        -2.199912        -2.261664
 H         0.446193        -0.637464        -4.077151
 H        -0.260977        -1.628609        -2.755806
 H         0.799548         0.917314        -2.403025
