19
Iteration:   987
 C         0.252452         0.422801         0.329365
 C         1.235885        -0.166623        -0.647860
 O         2.132252        -1.268883        -0.281165
 C         2.711814         0.023244        -0.878668
 C         2.452423        -0.176617        -2.382862
 C         2.961243        -1.474841        -3.178059
 O         1.804754        -2.222672        -3.333366
 C         0.751343        -1.898787        -2.458836
 C         0.961194        -0.425612        -2.098258
 H         0.020264         1.485690         0.193341
 H        -0.727383        -0.152758         0.222882
 H         0.613759         0.287309         1.329703
 H         3.690413         0.492134        -0.382300
 H         2.714690         0.736971        -2.925712
 H         3.282871        -1.353743        -4.236708
 H         3.712329        -2.104231        -2.578928
 H        -0.205703        -1.974849        -3.035686
 H         0.657762        -2.554977        -1.541501
 H         0.281986         0.234929        -2.663857
