19
Iteration:   973
 C         0.222013         0.315152         0.355536
 C         1.296406        -0.119445        -0.562876
 O         2.176215        -1.168650        -0.263975
 C         2.698595        -0.053812        -0.935003
 C         2.537022        -0.193740        -2.456204
 C         2.957954        -1.438996        -3.122108
 O         1.798781        -2.361565        -3.329797
 C         0.632183        -1.813502        -2.533736
 C         0.950266        -0.358463        -2.092093
 H        -0.112297         1.260088         0.007529
 H        -0.714191        -0.431343         0.172567
 H         0.494712         0.435337         1.385149
 H         3.455654         0.538631        -0.285910
 H         2.735886         0.703421        -3.024746
 H         3.437213        -1.140428        -4.043393
 H         3.806925        -1.929232        -2.594524
 H        -0.170073        -2.011853        -3.102308
 H         0.552985        -2.505797        -1.676321
 H         0.331436         0.390587        -2.413269
