19
Iteration:    15charge 0 multiplicity 1
 C         0.220175         0.383743         0.495450
 C         1.189373        -0.087895        -0.623987
 O         2.123642        -1.101599        -0.169482
 C         2.677039         0.064802        -1.021880
 C         2.467155        -0.219866        -2.502547
 C         3.033128        -1.612476        -2.927704
 O         1.813468        -2.211990        -3.567494
 C         0.779936        -1.927900        -2.537295
 C         0.901786        -0.424772        -2.169286
 H         0.962020         0.804128         1.297616
 H        -0.627515         0.963589         0.406096
 H        -0.222644        -0.626523         0.874986
 H         3.778316         0.244391        -0.584012
 H         2.764001         0.619855        -3.153447
 H         3.843630        -1.602652        -3.649808
 H         3.175153        -2.160596        -1.912321
 H        -0.204186        -2.158331        -3.046891
 H         1.044610        -2.491808        -1.661364
 H         0.214234         0.203928        -2.578777
