19
Iteration:  2206
 C         0.179022         0.040619         0.385823
 C         1.217100        -0.137664        -0.682354
 O         2.225867        -1.105102        -0.314407
 C         2.760404         0.099380        -0.973710
 C         2.516178        -0.197515        -2.448862
 C         2.963677        -1.565083        -2.964085
 O         1.776341        -2.370812        -3.104610
 C         0.628887        -1.650463        -2.680724
 C         1.021695        -0.286043        -2.183247
 H        -0.508859         0.982852         0.177251
 H        -0.532922        -0.736940         0.511898
 H         0.776336         0.098038         1.357390
 H         3.468234         0.564376        -0.480324
 H         2.764688         0.630260        -3.153549
 H         3.485504        -1.508898        -4.016552
 H         3.622673        -1.855838        -2.114527
 H         0.067430        -1.556839        -3.688380
 H        -0.097597        -2.266095        -1.986242
 H         0.429912         0.501254        -2.564864
