19
Iteration:  2713charge 0 multiplicity 1
 C         0.217145         0.204964         0.417682
 C         1.209411        -0.168425        -0.685461
 O         2.149806        -1.204038        -0.299060
 C         2.699449        -0.035849        -0.862021
 C         2.521019        -0.120585        -2.411466
 C         2.925067        -1.427641        -3.174942
 O         1.858537        -2.410768        -2.970085
 C         0.663345        -1.719243        -2.730496
 C         1.052855        -0.291518        -2.255740
 H        -0.038975         1.358617         0.434878
 H        -0.716274        -0.409630         0.336970
 H         0.529027         0.047535         1.417470
 H         3.461232         0.371565        -0.242618
 H         2.760843         0.779684        -2.980511
 H         2.839647        -1.261474        -4.255266
 H         3.885838        -1.878447        -3.031262
 H         0.051234        -1.772596        -3.605414
 H         0.156322        -2.301591        -1.889166
 H         0.433282         0.473187        -2.671574
