19
Iteration:   888charge 0 multiplicity 1
 C         0.368028         0.072374         0.460456
 C         1.286666        -0.237633        -0.659107
 O         2.330345        -1.152082        -0.327817
 C         2.635707         0.129342        -1.022376
 C         2.409147        -0.170590        -2.434779
 C         3.002757        -1.529727        -2.888883
 O         1.741191        -2.410106        -2.858456
 C         0.544897        -1.533173        -3.054226
 C         0.887620        -0.358323        -2.209492
 H        -0.462480         0.601339         0.161238
 H         0.132188        -0.845691         1.027099
 H         0.878733         0.616385         1.150191
 H         3.426030         0.851973        -0.444062
 H         2.659435         0.629853        -3.088850
 H         3.384902        -1.565821        -3.896882
 H         3.558188        -2.043094        -2.063319
 H         0.702772        -1.298927        -4.165126
 H        -0.424284        -2.083807        -2.789071
 H         0.332372         0.536750        -2.430497
