19
Iteration:  3048
 C         0.249135         0.339107         0.491979
 C         1.239437        -0.156083        -0.606772
 O         2.112985        -1.205593        -0.254335
 C         2.646039        -0.011981        -0.905232
 C         2.528727        -0.214625        -2.380371
 C         2.969812        -1.574813        -2.942648
 O         1.801864        -2.232437        -3.507330
 C         0.759948        -1.813175        -2.702640
 C         0.983595        -0.362469        -2.117250
 H        -0.519721         0.873755        -0.124884
 H        -0.146443        -0.484877         1.090663
 H         0.654667         1.138663         1.138863
 H         3.305516         0.575344        -0.414314
 H         2.745306         0.594883        -3.097429
 H         3.674048        -1.382953        -3.760402
 H         3.435190        -2.097871        -2.162901
 H        -0.100001        -1.674278        -3.306266
 H         0.460650        -2.530397        -1.856893
 H         0.283614         0.397647        -2.603815
