19
Iteration:  4165
 C         0.191033         0.255709         0.329581
 C         1.257163        -0.299773        -0.613269
 O         1.937908        -1.447044        -0.193550
 C         2.705739        -0.287453        -0.641941
 C         2.761204        -0.366883        -2.167991
 C         2.912881        -1.701500        -2.798258
 O         1.748958        -2.036444        -3.540924
 C         0.600947        -1.178640        -3.128381
 C         1.197995        -0.177184        -2.161454
 H         0.880023         0.542667         1.212179
 H        -0.244402         1.168149        -0.017221
 H        -0.597647        -0.428716         0.620920
 H         3.634417        -0.154837         0.029967
 H         3.255848         0.517583        -2.705087
 H         3.686795        -1.909475        -3.531933
 H         3.041013        -2.422017        -1.954294
 H         0.001573        -0.672593        -3.980829
 H        -0.110952        -1.813886        -2.662669
 H         0.882795         0.848024        -2.316272
