19
Iteration:   891
 C         0.367911         0.073182         0.471297
 C         1.291711        -0.243809        -0.664581
 O         2.332329        -1.152572        -0.323744
 C         2.664252         0.115907        -1.023871
 C         2.409398        -0.168420        -2.433423
 C         3.014419        -1.539014        -2.866033
 O         1.734808        -2.405274        -2.872186
 C         0.536265        -1.540563        -3.052665
 C         0.887415        -0.353967        -2.211233
 H        -0.588156         0.648957         0.131660
 H         0.155153        -0.854248         0.965002
 H         0.868520         0.732846         1.285804
 H         3.285036         0.855787        -0.548996
 H         2.636640         0.667195        -3.119042
 H         3.336615        -1.517538        -3.909730
 H         3.518596        -2.031009        -2.060457
 H         0.653064        -1.230010        -4.108105
 H        -0.296834        -2.210805        -2.860052
 H         0.253524         0.613902        -2.494523
