19
Iteration:  1877
 C         0.201166         0.139256         0.436040
 C         1.226035        -0.251128        -0.690376
 O         2.303014        -1.274359        -0.377140
 C         2.650966         0.036681        -0.906020
 C         2.615152        -0.116815        -2.474517
 C         2.928103        -1.537411        -3.050260
 O         1.802263        -2.387803        -2.824651
 C         0.560944        -1.581566        -2.865267
 C         0.964907        -0.257609        -2.216127
 H        -0.695117         0.787162         0.076884
 H        -0.163728        -0.713373         0.869136
 H         0.763419         0.708735         1.079022
 H         3.159051         0.922303        -0.314584
 H         2.955155         0.854621        -3.063766
 H         3.090667        -1.182621        -4.139591
 H         3.864717        -2.017482        -2.585346
 H         0.149119        -1.516208        -3.926600
 H        -0.086988        -2.194938        -2.164697
 H         0.467603         0.633003        -2.622467
