19
Iteration:  2541
 C         0.150178         0.215605         0.267568
 C         1.244375        -0.248150        -0.611992
 O         2.303309        -1.257517        -0.302090
 C         2.673479         0.012203        -0.934819
 C         2.571106        -0.094220        -2.423041
 C         2.842714        -1.385021        -3.191853
 O         1.872647        -2.420723        -2.859756
 C         0.613257        -1.640802        -2.726123
 C         1.022232        -0.372234        -2.141659
 H        -0.206288         1.183503         0.188784
 H        -0.776717        -0.467777        -0.043066
 H         0.405239         0.175373         1.308924
 H         3.504060         0.573189        -0.514531
 H         2.793813         0.842549        -2.872698
 H         2.748429        -1.279034        -4.258782
 H         3.808043        -1.771670        -2.963386
 H         0.149945        -1.620434        -3.666178
 H         0.010281        -2.250584        -2.122576
 H         0.301844         0.484313        -2.537474
