19
Iteration:   265
 C         0.291234         0.303067         0.353259
 C         1.220309        -0.251346        -0.646965
 O         2.202608        -1.200576        -0.194508
 C         2.672277         0.013728        -0.826752
 C         2.499543        -0.176840        -2.402803
 C         2.918782        -1.461119        -3.108323
 O         1.828519        -2.421556        -3.131281
 C         0.631181        -1.673573        -2.850138
 C         0.996038        -0.384436        -2.130670
 H        -0.789403         0.555196         0.075629
 H         0.109590        -0.433321         1.052134
 H         0.826897         1.179820         0.853404
 H         3.546574         0.597608        -0.202325
 H         2.673615         0.730469        -3.007630
 H         3.117985        -1.132168        -4.182401
 H         3.705221        -1.937930        -2.620392
 H         0.162395        -1.416233        -3.799751
 H        -0.112224        -2.236078        -2.280616
 H         0.462052         0.476347        -2.548489
