19
Iteration:  2172charge 0 multiplicity 1
 C         0.263845         0.097180         0.425987
 C         1.214305        -0.230502        -0.706352
 O         2.341626        -1.134870        -0.362917
 C         2.623929         0.098160        -0.921333
 C         2.528357        -0.108374        -2.437179
 C         2.927886        -1.519728        -2.820935
 O         1.756289        -2.380213        -3.071116
 C         0.560627        -1.705372        -2.846994
 C         0.986112        -0.331974        -2.265307
 H         0.198349         1.308596         0.482369
 H        -0.683642        -0.404167         0.658245
 H         0.882051        -0.092479         1.338876
 H         3.268613         0.784224        -0.410731
 H         2.893039         0.754411        -3.061849
 H         3.662973        -1.557121        -3.734604
 H         3.573521        -1.960577        -2.011412
 H         0.113651        -1.576078        -3.895202
 H        -0.170956        -2.215217        -2.062187
 H         0.386154         0.478109        -2.725717
