19
Iteration:  2456
 C         0.303007         0.170563         0.441506
 C         1.246081        -0.254781        -0.620017
 O         2.293241        -1.179247        -0.346495
 C         2.661772         0.088024        -0.974130
 C         2.457889        -0.134188        -2.449182
 C         3.004413        -1.501337        -2.793690
 O         1.769997        -2.408258        -3.077159
 C         0.615918        -1.650197        -2.921402
 C         0.883809        -0.351083        -2.177145
 H        -0.546614         0.729163         0.005027
 H         0.025666        -0.727908         0.989301
 H         0.863922         0.864070         1.222175
 H         3.358801         0.637046        -0.548599
 H         2.648606         0.693686        -3.165265
 H         3.315586        -1.312808        -3.869846
 H         3.790717        -2.003983        -2.188186
 H         0.256260        -1.165129        -3.954450
 H        -0.169525        -2.291688        -2.489995
 H         0.322543         0.441160        -2.517207
