19
Iteration:  1767
 C         0.286877         0.407468         0.380673
 C         1.214071        -0.146346        -0.632811
 O         2.048534        -1.303539        -0.328633
 C         2.705039        -0.205011        -0.917643
 C         2.448890        -0.192119        -2.465616
 C         3.040880        -1.340295        -3.065924
 O         1.880347        -2.278292        -3.285464
 C         0.718747        -1.801313        -2.453371
 C         0.904571        -0.353954        -2.192256
 H         0.108610         1.590675         0.307916
 H        -0.633673        -0.048236         0.382040
 H         0.663591         0.269966         1.298485
 H         3.532514         0.240299        -0.492662
 H         2.777578         0.806328        -2.958440
 H         3.270108        -1.002356        -4.067155
 H         3.804680        -1.904925        -2.459745
 H        -0.058512        -2.062851        -3.104045
 H         0.614440        -2.466356        -1.587789
 H         0.177348         0.333973        -2.565685
