19
Iteration:  3819
 C         0.400024         0.518307         0.459607
 C         1.214567        -0.191930        -0.557987
 O         1.787645        -1.405924        -0.206562
 C         2.695740        -0.342818        -0.652233
 C         2.679951        -0.253822        -2.175645
 C         3.002001        -1.595036        -2.999089
 O         1.783436        -2.023046        -3.719143
 C         0.710867        -1.654468        -2.923685
 C         1.053160        -0.292311        -2.111681
 H        -0.113314         1.441840         0.027847
 H        -0.444572        -0.156627         0.705683
 H         0.923237         0.617134         1.365819
 H         3.374237         0.082899         0.034495
 H         3.012280         0.685884        -2.611176
 H         3.790825        -1.518160        -3.745210
 H         3.207326        -2.392658        -2.323467
 H        -0.125669        -1.553595        -3.644021
 H         0.376937        -2.493905        -2.198695
 H         0.724764         0.768236        -2.514469
