19
Iteration:  3725
 C         0.292124         0.479593         0.393897
 C         1.208579        -0.167592        -0.610835
 O         1.929653        -1.414721        -0.078239
 C         2.699484        -0.297748        -0.665353
 C         2.649202        -0.369362        -2.219322
 C         2.985731        -1.632338        -3.050661
 O         1.738811        -1.943060        -3.758285
 C         0.683575        -1.676901        -2.788132
 C         1.110539        -0.244366        -2.142095
 H         0.777622         1.051643         1.123137
 H        -0.312695         1.292037        -0.055729
 H        -0.530970        -0.269188         0.792809
 H         3.477774         0.062774         0.122325
 H         3.052640         0.614470        -2.611569
 H         3.737896        -1.337236        -3.846124
 H         3.410297        -2.469745        -2.356981
 H        -0.291742        -1.657111        -3.355999
 H         0.580937        -2.368269        -2.018892
 H         0.792750         0.583196        -2.660567
