19
Iteration:  1482
 C         0.348221         0.476967         0.388384
 C         1.209181        -0.271007        -0.584691
 O         2.027668        -1.375202        -0.283662
 C         2.665348        -0.074058        -0.894027
 C         2.469805        -0.179009        -2.416932
 C         2.911899        -1.348679        -3.173769
 O         1.981763        -2.338135        -3.071210
 C         0.700177        -1.766980        -2.718851
 C         0.923839        -0.373269        -2.151793
 H        -0.054874         1.400263        -0.205196
 H        -0.491797        -0.072004         0.684200
 H         0.953542         0.900044         1.185618
 H         3.654912         0.260297        -0.345412
 H         2.541752         0.936308        -2.935850
 H         3.186016        -1.074860        -4.242329
 H         3.803091        -1.810805        -2.641672
 H         0.079225        -1.564516        -3.664113
 H         0.181989        -2.558124        -2.067003
 H         0.203911         0.288951        -2.690478
