19
Iteration:  4421
 C         0.327743         0.302999         0.352526
 C         1.232143        -0.290975        -0.723101
 O         1.760961        -1.504072        -0.301154
 C         2.712042        -0.328137        -0.583530
 C         2.776277        -0.274326        -2.187597
 C         2.928235        -1.697284        -2.743199
 O         1.750383        -2.019244        -3.506853
 C         0.696780        -1.339274        -3.021237
 C         1.194123        -0.050345        -2.210506
 H         0.484057        -0.164015         1.269433
 H         0.412308         1.430050         0.444983
 H        -0.725286         0.028025        -0.015681
 H         3.387035        -0.113292         0.404126
 H         3.378965         0.533673        -2.623999
 H         3.695474        -1.689729        -3.598683
 H         3.053956        -2.595340        -2.036744
 H        -0.080841        -1.094230        -3.811910
 H         0.043240        -1.877029        -2.371728
 H         0.702285         0.914997        -2.573190
