19
Iteration:  4433charge 0 multiplicity 1
 C         0.303250         0.327863         0.381472
 C         1.204553        -0.230086        -0.623146
 O         1.829735        -1.554718        -0.408494
 C         2.636082        -0.366238        -0.606229
 C         2.734980        -0.299254        -2.163688
 C         2.989030        -1.700686        -2.783988
 O         1.779291        -2.058506        -3.470820
 C         0.604688        -1.242329        -2.996328
 C         1.200755        -0.107868        -2.257539
 H         0.465042        -0.092099         1.375148
 H         0.460560         1.416856         0.440954
 H        -0.829050         0.191878         0.130247
 H         3.327534         0.211831         0.176279
 H         3.361196         0.443961        -2.619025
 H         3.911506        -1.882376        -3.453594
 H         3.217484        -2.302794        -1.831801
 H         0.116971        -0.950584        -3.924636
 H         0.090255        -1.896960        -2.357598
 H         0.990939         0.960557        -2.518209
