19
Iteration:  3399charge 0 multiplicity 1
 C         0.310919         0.320603         0.427657
 C         1.249543        -0.228481        -0.544534
 O         2.010944        -1.322770        -0.256344
 C         2.698551        -0.108385        -0.784561
 C         2.527748        -0.187806        -2.372764
 C         2.931092        -1.583183        -2.928416
 O         1.802802        -2.180590        -3.454982
 C         0.699390        -1.672744        -2.845101
 C         1.040535        -0.280869        -2.199905
 H         0.538820         1.384141         0.680473
 H        -0.638053         0.342978        -0.020208
 H         0.363869        -0.132985         1.400698
 H         3.435018         0.449157        -0.306885
 H         2.943491         0.689926        -2.907262
 H         3.727498        -1.591023        -3.709688
 H         3.303004        -2.128300        -1.987454
 H        -0.016485        -1.603779        -3.576401
 H         0.285857        -2.262629        -2.031081
 H         0.488465         0.665796        -2.429444
