19
Iteration:   553
 C         0.263787         0.148647         0.448967
 C         1.225334        -0.229985        -0.676824
 O         2.336868        -1.115633        -0.294294
 C         2.656407         0.143005        -0.935045
 C         2.499304        -0.193968        -2.436443
 C         2.915487        -1.566608        -2.972683
 O         1.804609        -2.469271        -2.963827
 C         0.573732        -1.596427        -2.914855
 C         0.960051        -0.297983        -2.221175
 H        -0.572886         0.896556         0.110085
 H        -0.308777        -0.794841         0.855451
 H         0.812065         0.359052         1.355433
 H         3.365956         0.669263        -0.304284
 H         3.003510         0.619037        -3.038585
 H         3.099789        -1.387453        -4.120353
 H         3.852940        -1.983851        -2.630149
 H         0.223363        -1.436604        -3.911332
 H        -0.239227        -2.180380        -2.401733
 H         0.326128         0.588726        -2.509108
