19
Iteration:   816
 C         0.191100         0.219431         0.307749
 C         1.302864        -0.118053        -0.609814
 O         2.222267        -1.269153        -0.299489
 C         2.709589        -0.014880        -0.949240
 C         2.518862        -0.139938        -2.468603
 C         2.925881        -1.379108        -3.224228
 O         1.862818        -2.456392        -2.928861
 C         0.611395        -1.676522        -2.653044
 C         0.953125        -0.315831        -2.112383
 H        -0.215782         1.312479         0.059569
 H        -0.632725        -0.405966        -0.031682
 H         0.277204        -0.035040         1.472317
 H         3.529475         0.506464        -0.539509
 H         2.883850         0.823532        -2.964540
 H         3.056389        -1.246401        -4.374944
 H         3.887341        -1.794347        -2.843741
 H        -0.134609        -1.650208        -3.483789
 H         0.246273        -2.346088        -1.818900
 H         0.145982         0.410653        -2.523999
