19
Iteration:  3066charge 0 multiplicity 1
 C         0.318822         0.329906         0.398891
 C         1.145464        -0.270389        -0.687337
 O         2.165754        -1.263901        -0.338246
 C         2.617939         0.061773        -0.840669
 C         2.528215        -0.180559        -2.374678
 C         3.030689        -1.566270        -2.907592
 O         1.834636        -2.180968        -3.366990
 C         0.555905        -1.761898        -2.684324
 C         0.989350        -0.376420        -2.178581
 H        -0.582422         0.713060         0.051176
 H         0.324807        -0.423918         1.221855
 H         0.974915         1.185827         0.924200
 H         3.386261         0.518124        -0.191816
 H         2.727216         0.703064        -2.988762
 H         3.721882        -1.525453        -3.737491
 H         3.572390        -2.106340        -1.971219
 H        -0.218812        -1.880260        -3.452165
 H         0.432819        -2.419012        -1.875327
 H         0.363706         0.393749        -2.646632
