19
Iteration:   874
 C         0.353048         0.060346         0.488441
 C         1.196032        -0.326057        -0.690534
 O         2.330829        -1.121808        -0.344685
 C         2.614705         0.153933        -0.913802
 C         2.496557        -0.114831        -2.523937
 C         2.847971        -1.568451        -2.946699
 O         1.750176        -2.431603        -2.811923
 C         0.642341        -1.564348        -3.024207
 C         0.987141        -0.295645        -2.217901
 H        -0.429096         0.735410         0.186785
 H        -0.129851        -0.840140         0.931972
 H         0.974709         0.607743         1.204617
 H         3.435524         0.675648        -0.365269
 H         2.759877         0.674632        -3.258486
 H         3.217109        -1.537488        -4.019272
 H         3.678358        -1.876815        -2.281594
 H         0.358204        -1.237299        -4.054736
 H        -0.264180        -2.131501        -2.617804
 H         0.401463         0.515036        -2.495308
