19
Iteration:   200charge 0 multiplicity 1
 C         0.301732         0.370307         0.356981
 C         1.223518        -0.266794        -0.658883
 O         2.165248        -1.320574        -0.300838
 C         2.646119        -0.078050        -0.863662
 C         2.555702        -0.196698        -2.379429
 C         2.919637        -1.370148        -3.173155
 O         1.857576        -2.305447        -2.944837
 C         0.613320        -1.733090        -2.752793
 C         0.962146        -0.344903        -2.223867
 H        -0.678233         0.676282        -0.144408
 H         0.053100        -0.326033         1.087937
 H         0.830643         1.213779         0.892294
 H         3.436951         0.560206        -0.106636
 H         2.812642         0.687730        -2.992754
 H         2.985851        -1.050960        -4.198050
 H         3.782030        -1.912497        -2.898723
 H         0.251659        -1.551282        -3.777522
 H         0.048491        -2.425961        -2.140123
 H         0.397007         0.441404        -2.672065
