19
Iteration:  1640charge 0 multiplicity 1
 C         0.278293         0.268130         0.442245
 C         1.254054        -0.186616        -0.639994
 O         2.245015        -1.066094        -0.151015
 C         2.656042         0.109683        -0.890989
 C         2.501390        -0.297328        -2.400429
 C         2.889943        -1.672773        -2.867648
 O         1.777792        -2.136624        -3.599528
 C         0.653050        -1.790867        -2.741910
 C         0.986333        -0.439127        -2.135608
 H        -0.503427         0.829441         0.130054
 H        -0.094762        -0.714316         0.877990
 H         0.857756         0.879606         1.241475
 H         3.195637         0.926592        -0.292681
 H         2.711815         0.565042        -2.980690
 H         3.810232        -1.856738        -3.414776
 H         3.038059        -2.247839        -1.937971
 H        -0.289228        -1.908783        -3.355561
 H         0.708201        -2.639353        -1.986457
 H         0.522745         0.401344        -2.704523
