19
Iteration:  1612charge 0 multiplicity 1
 C         0.179193         0.267940         0.424443
 C         1.249209        -0.151114        -0.608503
 O         2.238370        -1.114213        -0.197751
 C         2.699592         0.037468        -0.919773
 C         2.522899        -0.252705        -2.356250
 C         2.985279        -1.548834        -3.024384
 O         1.777120        -2.296771        -3.417151
 C         0.594855        -1.771559        -2.689515
 C         0.975642        -0.369416        -2.156544
 H        -0.500221         1.151146         0.066833
 H        -0.405433        -0.608262         0.725222
 H         0.766572         0.531789         1.323105
 H         3.578102         0.538724        -0.430584
 H         2.856180         0.763955        -2.787827
 H         3.693949        -1.538746        -3.921687
 H         3.617784        -2.157964        -2.317395
 H        -0.238554        -1.739948        -3.427429
 H         0.361354        -2.524981        -1.967990
 H         0.491603         0.495558        -2.692229
