19
Iteration:  1225charge 0 multiplicity 1
 C         0.328377         0.313899         0.389296
 C         1.226711        -0.235637        -0.650409
 O         2.167727        -1.248427        -0.202569
 C         2.657060         0.039403        -0.825662
 C         2.525510        -0.218427        -2.407641
 C         2.877713        -1.362860        -3.269619
 O         1.882633        -2.466851        -2.880607
 C         0.660153        -1.670441        -2.933007
 C         0.964347        -0.397616        -2.165292
 H         0.385906         1.292761         0.334013
 H        -0.752517         0.093709         0.198260
 H         0.650379         0.077684         1.329756
 H         3.390709         0.679374        -0.134938
 H         2.601099         0.687805        -3.069568
 H         2.811014        -1.145383        -4.293801
 H         3.863726        -1.773688        -3.114696
 H         0.378804        -1.365738        -3.944818
 H        -0.279765        -2.214266        -2.513924
 H         0.222877         0.352215        -2.323470
