19
Iteration:  3337charge 0 multiplicity 1
 C         0.228784         0.293362         0.451914
 C         1.251463        -0.125804        -0.607535
 O         2.025222        -1.290280        -0.203366
 C         2.714452        -0.242906        -0.789216
 C         2.558365        -0.189435        -2.371303
 C         3.012471        -1.435337        -3.083769
 O         1.815651        -2.350751        -3.337367
 C         0.645579        -1.621972        -2.808461
 C         1.056976        -0.219342        -2.182126
 H         0.581050         1.228606         1.046766
 H        -0.647058         0.612930        -0.137432
 H        -0.095135        -0.545280         0.952089
 H         3.416615         0.202990        -0.189169
 H         3.034905         0.677978        -2.763427
 H         3.502294        -1.368271        -4.025488
 H         3.628436        -2.019021        -2.476137
 H        -0.098287        -1.646548        -3.729676
 H         0.048399        -2.132451        -1.979493
 H         0.506780         0.611206        -2.590736
