19
Iteration:  1013
 C         0.379120         0.556487         0.375999
 C         1.165140        -0.205739        -0.631200
 O         2.085206        -1.244705        -0.174325
 C         2.627291        -0.046912        -0.883554
 C         2.428875        -0.183541        -2.373725
 C         2.942486        -1.415225        -3.156986
 O         1.857896        -2.227339        -3.540233
 C         0.800099        -2.018651        -2.468955
 C         0.922122        -0.451946        -2.109024
 H         0.396285         1.699242         0.249123
 H        -0.614138         0.303922         0.301956
 H         0.825493         0.377339         1.416239
 H         3.295521         0.569263        -0.458315
 H         2.925411         0.728282        -2.794364
 H         3.540021        -1.218176        -4.097136
 H         3.533100        -2.093235        -2.516053
 H        -0.370192        -2.315147        -2.722343
 H         1.088756        -2.621738        -1.582456
 H         0.053469         0.180325        -2.634760
