19
Iteration:   904charge 0 multiplicity 1
 C         0.342055         0.113170         0.512018
 C         1.224378        -0.243446        -0.657177
 O         2.379501        -1.123835        -0.307771
 C         2.687624         0.079862        -0.945847
 C         2.475238        -0.151968        -2.529179
 C         2.851128        -1.574543        -2.847782
 O         1.759420        -2.381340        -2.968031
 C         0.614016        -1.620513        -3.039739
 C         0.902226        -0.324078        -2.177415
 H        -0.691993         0.533183         0.068690
 H        -0.021328        -0.807934         0.992031
 H         0.798488         0.838852         1.374486
 H         3.239539         0.776804        -0.507600
 H         2.816666         0.648446        -3.258935
 H         3.506491        -1.603243        -3.770225
 H         3.636125        -1.923412        -2.224671
 H         0.217084        -1.203382        -3.947504
 H        -0.208319        -2.265981        -2.776980
 H         0.280158         0.618205        -2.536558
