19
Iteration:  3271
 C         0.224864         0.374963         0.303228
 C         1.224606        -0.204864        -0.583378
 O         2.090671        -1.343511        -0.235060
 C         2.712176        -0.239149        -0.824632
 C         2.587870        -0.213747        -2.345408
 C         3.040074        -1.398551        -3.161503
 O         1.860375        -2.293986        -3.139743
 C         0.571787        -1.645733        -2.812343
 C         0.950004        -0.300708        -2.119727
 H         0.646640         0.182326         1.386331
 H         0.224423         1.470181         0.246373
 H        -0.801056         0.149674         0.034608
 H         3.453681         0.186347        -0.252603
 H         2.839502         0.752749        -2.694604
 H         3.232592        -1.052904        -4.204707
 H         3.907339        -1.839307        -2.767747
 H        -0.028371        -1.434316        -3.791778
 H         0.020936        -2.441783        -2.237009
 H         0.500853         0.622100        -2.419079
