19
Iteration:  4501charge 0 multiplicity 1
 C         0.170370         0.453536         0.302869
 C         1.203468        -0.265784        -0.597958
 O         1.761106        -1.536440        -0.224263
 C         2.710467        -0.533640        -0.547476
 C         2.810010        -0.415522        -2.121409
 C         2.975060        -1.499283        -3.174148
 O         1.769640        -2.120147        -3.258242
 C         0.674829        -1.226963        -3.073474
 C         1.269186        -0.137202        -2.179539
 H         0.679587         0.688627         1.338457
 H        -0.038058         1.344154        -0.226440
 H        -0.793908        -0.158236         0.410908
 H         3.267241        -0.114676         0.211554
 H         3.396094         0.445466        -2.271468
 H         3.371670        -1.112586        -4.183190
 H         3.588348        -2.416417        -2.979495
 H         0.324451        -0.870130        -4.006266
 H        -0.053410        -1.764146        -2.525518
 H         0.944126         0.821129        -2.577890
