19
Iteration:  4873charge 0 multiplicity 1
 C         0.298239         0.320334         0.393775
 C         1.287285        -0.117391        -0.687599
 O         1.659969        -1.553848        -0.378756
 C         2.638877        -0.448645        -0.663886
 C         2.807574        -0.293747        -2.110848
 C         3.011851        -1.582003        -2.855811
 O         1.782345        -2.135164        -3.323054
 C         0.698096        -1.298450        -3.055064
 C         1.141932        -0.048990        -2.238559
 H         0.656646        -0.240334         1.334995
 H         0.334899         1.341070         0.657287
 H        -0.790568         0.086383         0.171271
 H         3.494559        -0.457667         0.146023
 H         3.435974         0.406289        -2.548790
 H         3.637684        -1.413186        -3.810936
 H         3.577309        -2.396542        -2.245902
 H         0.162867        -0.934813        -4.058811
 H        -0.003710        -1.781981        -2.360168
 H         0.744516         0.910154        -2.676395
