19
Iteration:  1561charge 0 multiplicity 1
 C         0.260267         0.406000         0.367402
 C         1.238408        -0.185021        -0.598582
 O         2.119433        -1.321707        -0.386145
 C         2.699885        -0.152400        -0.870950
 C         2.445115        -0.185368        -2.430110
 C         2.940260        -1.330936        -3.167500
 O         1.924136        -2.349721        -3.003266
 C         0.666553        -1.773841        -2.656902
 C         0.978790        -0.323911        -2.169790
 H         0.197224         1.510136         0.076368
 H        -0.715947        -0.018046         0.209845
 H         0.492619         0.230676         1.351477
 H         3.407454         0.328003        -0.313799
 H         2.817207         0.812356        -2.915338
 H         2.842537        -1.025327        -4.216657
 H         3.930239        -1.715015        -2.913500
 H        -0.056491        -1.776844        -3.463876
 H         0.303799        -2.516271        -1.837711
 H         0.287586         0.323175        -2.651641
