19
Iteration:  1241charge 0 multiplicity 1
 C         0.259243         0.348488         0.364995
 C         1.212579        -0.229473        -0.615587
 O         2.136182        -1.251651        -0.209893
 C         2.707574        -0.132168        -0.898178
 C         2.500118        -0.107720        -2.433363
 C         2.905009        -1.380226        -3.296148
 O         1.903028        -2.450283        -2.890028
 C         0.672004        -1.709842        -2.805602
 C         0.967606        -0.322800        -2.160373
 H         0.092790         1.564043         0.374623
 H        -0.675194        -0.174107         0.195041
 H         0.636805         0.071418         1.500202
 H         3.455215         0.403141        -0.404162
 H         2.875495         0.912850        -2.682679
 H         2.607888        -1.092919        -4.371504
 H         3.932270        -1.806172        -3.234770
 H         0.303151        -1.523581        -3.852358
 H        -0.023325        -2.360442        -2.310674
 H         0.431645         0.503006        -2.696545
