19
Iteration:   210charge 0 multiplicity 1
 C         0.337083         0.305963         0.323819
 C         1.227169        -0.250412        -0.659154
 O         2.134602        -1.234249        -0.250887
 C         2.700688        -0.060604        -0.828928
 C         2.554168        -0.211189        -2.323455
 C         2.921660        -1.400240        -3.254009
 O         1.897315        -2.427035        -2.957269
 C         0.595401        -1.658072        -2.844220
 C         0.904032        -0.349915        -2.114081
 H        -0.580975         0.648084        -0.265418
 H         0.125694        -0.333151         1.079458
 H         0.720092         1.286577         0.769712
 H         3.310191         0.775776        -0.166130
 H         2.791379         0.784119        -2.747944
 H         2.849274        -1.073386        -4.292618
 H         3.853313        -1.841626        -3.177273
 H         0.173787        -1.541526        -3.815913
 H        -0.107986        -2.295804        -2.332583
 H         0.426254         0.524023        -2.534692
