19
Iteration:  1659
 C         0.288286         0.292795         0.456125
 C         1.189793        -0.230975        -0.678998
 O         2.358136        -1.051699        -0.118577
 C         2.619132         0.080156        -0.856228
 C         2.529787        -0.272436        -2.385410
 C         2.899760        -1.712171        -2.732262
 O         1.746792        -2.005454        -3.665107
 C         0.653453        -1.876963        -2.741380
 C         0.926661        -0.476502        -2.211446
 H        -0.504097         0.950839        -0.142592
 H        -0.208593        -0.404664         1.068966
 H         0.848638         0.956578         1.019389
 H         3.377776         0.669494        -0.492006
 H         2.940746         0.465879        -3.247116
 H         3.742883        -1.698377        -3.322755
 H         3.118284        -2.585592        -2.122752
 H        -0.191127        -1.920004        -3.319388
 H         0.586641        -2.597674        -1.929752
 H         0.279712         0.318588        -2.418758
