19
Iteration:  2731
 C         0.245339         0.177594         0.394142
 C         1.184407        -0.134818        -0.651106
 O         2.157426        -1.279087        -0.407907
 C         2.673230         0.019842        -0.929975
 C         2.574154        -0.152935        -2.457975
 C         2.945616        -1.474722        -3.157585
 O         1.928398        -2.427098        -2.899361
 C         0.623942        -1.636662        -2.721463
 C         0.881070        -0.270290        -2.119851
 H         0.022860         1.262336         0.600110
 H        -0.637236        -0.391089         0.164029
 H         0.782392        -0.053336         1.422532
 H         3.451289         0.711158        -0.345966
 H         2.887893         0.765627        -3.111841
 H         3.310332        -1.406143        -4.203913
 H         3.808341        -1.909060        -2.513947
 H         0.290539        -1.377216        -3.781612
 H        -0.082337        -2.252092        -2.276606
 H         0.211148         0.478698        -2.532815
