19
Iteration:   865charge 0 multiplicity 1
 C         0.303960         0.083262         0.499510
 C         1.218659        -0.307612        -0.700905
 O         2.336504        -1.139850        -0.347463
 C         2.654455         0.098279        -0.937620
 C         2.514508        -0.086471        -2.485494
 C         2.887226        -1.555274        -2.987219
 O         1.740418        -2.421539        -2.818603
 C         0.607390        -1.586466        -2.931392
 C         0.992968        -0.265749        -2.281060
 H        -0.386597         0.765386         0.229350
 H        -0.204483        -0.817584         0.920950
 H         0.840468         0.408685         1.289633
 H         3.118669         1.012017        -0.303779
 H         2.816129         0.679749        -3.174428
 H         2.990655        -1.511792        -4.044821
 H         3.681287        -2.099093        -2.413142
 H         0.511493        -1.370531        -4.072286
 H        -0.181686        -2.300869        -2.558497
 H         0.388010         0.528604        -2.545054
