19
Iteration:   760
 C         0.365083         0.569554         0.463499
 C         1.166417        -0.177819        -0.613821
 O         1.988639        -1.260233        -0.192232
 C         2.678540        -0.174722        -0.878951
 C         2.381368        -0.238512        -2.396729
 C         2.940774        -1.289715        -3.290480
 O         2.019493        -2.348194        -3.204760
 C         0.775180        -1.900967        -2.678562
 C         0.883830        -0.456361        -2.155624
 H         0.221800         1.696539         0.073541
 H        -0.632300         0.213696         0.861419
 H         1.139651         0.742782         1.309946
 H         3.514981         0.444064        -0.407896
 H         2.630730         0.761532        -2.853450
 H         3.097493        -1.030625        -4.379565
 H         3.915706        -1.678200        -2.920159
 H        -0.084148        -2.094529        -3.380810
 H         0.610229        -2.653447        -1.857153
 H         0.108426         0.217434        -2.711582
