19
Iteration:  1244
 C         0.250031         0.349310         0.384694
 C         1.208195        -0.218930        -0.622840
 O         2.132039        -1.257131        -0.218393
 C         2.720869        -0.162149        -0.905749
 C         2.508660        -0.118402        -2.447734
 C         2.864405        -1.389415        -3.273093
 O         1.924704        -2.410341        -2.902917
 C         0.682782        -1.720656        -2.789415
 C         0.971967        -0.310845        -2.170183
 H         0.078299         1.469170         0.356838
 H        -0.733633        -0.172690         0.190250
 H         0.594479         0.180999         1.378674
 H         3.568403         0.462898        -0.324243
 H         2.801853         0.869071        -2.663180
 H         2.639897        -1.165910        -4.344205
 H         3.921114        -1.816629        -3.200687
 H         0.211886        -1.529116        -3.807394
 H         0.050108        -2.394405        -2.261957
 H         0.431275         0.491836        -2.704951
