19
Iteration:  3632charge 0 multiplicity 1
 C         0.180802         0.255006         0.307692
 C         1.196493        -0.212770        -0.615177
 O         2.150811        -1.320864        -0.136647
 C         2.730524        -0.183476        -0.753744
 C         2.675802        -0.297987        -2.232944
 C         2.948280        -1.683564        -2.921395
 O         1.722040        -2.143986        -3.502003
 C         0.574962        -1.454263        -2.872102
 C         1.112849        -0.174130        -2.200991
 H         0.186221        -0.520512         1.193149
 H         0.349326         1.055923         1.040768
 H        -0.718220         0.284583        -0.175889
 H         3.476758         0.452913        -0.235690
 H         3.112233         0.513320        -2.783704
 H         3.576059        -1.524222        -3.793684
 H         3.369118        -2.537899        -2.346229
 H        -0.118276        -1.119545        -3.627572
 H         0.049350        -2.182846        -2.314589
 H         0.664303         0.903287        -2.508432
