19
Iteration:  1902
 C         0.305383         0.002441         0.372946
 C         1.268717        -0.132405        -0.727208
 O         2.145663        -1.228020        -0.402835
 C         2.703783         0.009080        -0.919406
 C         2.533074        -0.090989        -2.502140
 C         2.982649        -1.525382        -2.934811
 O         1.774818        -2.349988        -2.809014
 C         0.601494        -1.599972        -2.754260
 C         0.923925        -0.237656        -2.274608
 H        -0.410828         0.654563         0.063642
 H        -0.154858        -0.973390         0.477350
 H         0.832721         0.426446         1.303087
 H         3.716891         0.472666        -0.448495
 H         2.874388         0.841112        -3.103904
 H         3.118914        -1.343969        -4.028521
 H         3.932740        -1.880962        -2.440350
 H         0.182028        -1.462700        -3.782404
 H        -0.016232        -2.218113        -2.165932
 H         0.314868         0.504703        -2.829027
