19
Iteration:  2632charge 0 multiplicity 1
 C         0.418847         0.514566         0.379192
 C         1.129711        -0.253949        -0.674817
 O         2.017200        -1.311357        -0.180546
 C         2.628822        -0.136359        -0.833402
 C         2.373889        -0.180379        -2.359443
 C         2.932539        -1.254046        -3.270469
 O         2.000751        -2.354778        -3.152142
 C         0.755236        -1.843448        -2.718606
 C         0.940211        -0.470845        -2.174038
 H        -0.236176         1.474980         0.061779
 H        -0.346084        -0.027865         0.988845
 H         1.408750         0.935446         0.921903
 H         3.283816         0.404971        -0.151083
 H         2.735410         0.858590        -2.735064
 H         3.120020        -1.092738        -4.316393
 H         3.845397        -1.553747        -2.649545
 H         0.042949        -1.763457        -3.515049
 H         0.362791        -2.486164        -2.017460
 H         0.292090         0.259954        -2.671843
