19
Iteration:  1890charge 0 multiplicity 1
 C         0.278405         0.050672         0.384692
 C         1.207782        -0.264239        -0.737178
 O         2.198127        -1.203203        -0.410028
 C         2.673769         0.031441        -0.934056
 C         2.516087        -0.116134        -2.443650
 C         2.895903        -1.462106        -3.027061
 O         1.807488        -2.394012        -2.801024
 C         0.609470        -1.593929        -2.784152
 C         1.057009        -0.212991        -2.279205
 H        -0.522299         0.677328         0.084674
 H        -0.127777        -0.813589         0.830559
 H         0.791053         0.533951         1.239549
 H         3.523410         0.500701        -0.203514
 H         2.917493         0.756560        -3.126920
 H         3.268488        -1.624937        -4.074670
 H         3.719217        -1.910073        -2.366920
 H         0.116871        -1.600951        -3.790153
 H        -0.138953        -1.971276        -2.103632
 H         0.452195         0.686979        -2.489519
