19
Iteration:  1365charge 0 multiplicity 1
 C         0.262470         0.391134         0.366204
 C         1.178288        -0.331303        -0.566900
 O         2.329200        -1.078448        -0.098696
 C         2.617925         0.085518        -0.914870
 C         2.488905        -0.270937        -2.368833
 C         2.948159        -1.647178        -2.908392
 O         1.753856        -2.137079        -3.568121
 C         0.674182        -1.826596        -2.784689
 C         0.998836        -0.481147        -2.091533
 H        -0.197677         1.449417         0.039044
 H        -0.682172        -0.282060         0.565467
 H         0.784543         0.621006         1.262146
 H         3.331004         0.818740        -0.346076
 H         2.590942         0.453939        -3.084946
 H         3.745880        -1.630543        -3.686226
 H         3.371663        -2.246704        -2.038215
 H        -0.177954        -1.601732        -3.433583
 H         0.425214        -2.669949        -2.237958
 H         0.409085         0.379549        -2.378545
