19
Iteration:  3141
 C         0.225881         0.216263         0.362903
 C         1.241774        -0.236221        -0.702526
 O         2.207632        -1.224673        -0.128322
 C         2.701729        -0.081211        -0.768748
 C         2.521343        -0.157083        -2.362190
 C         2.940132        -1.454570        -3.111839
 O         1.752050        -2.386754        -3.184247
 C         0.631455        -1.644269        -2.802702
 C         1.062318        -0.262841        -2.215470
 H        -0.663208        -0.391740         0.293844
 H         0.803863         0.394504         1.262550
 H        -0.165320         1.125046        -0.111623
 H         3.433659         0.535575        -0.228461
 H         2.771180         0.734801        -2.885889
 H         3.136478        -1.114923        -4.135508
 H         3.743317        -2.030061        -2.714301
 H        -0.065056        -1.581902        -3.796494
 H         0.056398        -2.180451        -2.015776
 H         0.650250         0.596783        -2.679445
