19
Iteration:  1140
 C         0.211976         0.162293         0.409751
 C         1.237856        -0.127015        -0.691468
 O         2.213176        -1.119105        -0.261210
 C         2.670753         0.026650        -0.881726
 C         2.547126        -0.221603        -2.478719
 C         2.939787        -1.642349        -2.925805
 O         1.745420        -2.235021        -3.301838
 C         0.639533        -1.761591        -2.633133
 C         1.085528        -0.241781        -2.259674
 H        -0.680424         0.830810         0.071905
 H        -0.143140        -0.850044         0.832735
 H         0.769513         0.460900         1.399576
 H         3.365832         0.621378        -0.307623
 H         2.728875         0.700222        -3.098471
 H         3.633707        -1.662017        -3.836601
 H         3.362362        -2.213514        -2.108573
 H        -0.154188        -1.889306        -3.359636
 H         0.386349        -2.236904        -1.659747
 H         0.355435         0.451881        -2.634583
