19
Iteration:  1581
 C         0.261666         0.319053         0.271231
 C         1.262973        -0.243397        -0.627952
 O         2.148962        -1.304879        -0.262006
 C         2.683444         0.028604        -0.836078
 C         2.533846        -0.089359        -2.427513
 C         2.962570        -1.422264        -3.186690
 O         1.846337        -2.370956        -3.155495
 C         0.633185        -1.774159        -2.585623
 C         0.942285        -0.351556        -2.170930
 H         0.020323         1.423911        -0.032492
 H        -0.625552        -0.209650         0.363645
 H         0.687925         0.266839         1.198395
 H         3.496249         0.353516        -0.211540
 H         2.831260         1.036384        -2.793559
 H         3.146661        -1.304426        -4.208233
 H         3.634231        -1.955819        -2.515800
 H        -0.055450        -1.633342        -3.353865
 H         0.181831        -2.416692        -1.784533
 H         0.350926         0.514328        -2.448626
