19
Iteration:   752charge 0 multiplicity 1
 C         0.399767         0.649815         0.493596
 C         1.168665        -0.155144        -0.579002
 O         1.994868        -1.242717        -0.204691
 C         2.595455        -0.226249        -0.904313
 C         2.425750        -0.197684        -2.371298
 C         2.968746        -1.257978        -3.305706
 O         2.004381        -2.364470        -3.237457
 C         0.793316        -1.945166        -2.680215
 C         0.867509        -0.573564        -2.193973
 H         0.052446         1.615916         0.073212
 H        -0.391688         0.143063         0.828310
 H         1.059349         0.930324         1.411272
 H         3.365827         0.229982        -0.379911
 H         2.652628         0.919214        -2.730192
 H         3.056640        -1.000245        -4.300576
 H         3.854669        -1.618281        -2.797704
 H        -0.019087        -1.829400        -3.485648
 H         0.509741        -2.627617        -1.794506
 H         0.189200         0.282614        -2.489471
