19
Iteration:  2590
 C         0.292956         0.408721         0.475474
 C         1.156106        -0.131144        -0.643198
 O         2.025222        -1.279652        -0.339756
 C         2.658030        -0.128167        -0.878738
 C         2.436190        -0.189953        -2.450319
 C         2.976586        -1.288919        -3.223149
 O         1.985218        -2.405956        -3.074888
 C         0.720563        -1.847398        -2.655253
 C         0.986854        -0.371015        -2.143729
 H         0.046466         1.574021         0.415128
 H        -0.631998        -0.046543         0.572046
 H         0.900907         0.519343         1.415507
 H         3.480045         0.510207        -0.366609
 H         2.592442         0.813351        -2.979883
 H         3.015527        -1.044631        -4.321125
 H         3.964673        -1.744026        -2.909018
 H         0.161701        -1.793445        -3.613246
 H         0.248324        -2.634468        -2.031540
 H         0.277782         0.252679        -2.545187
