19
Iteration:  3502charge 0 multiplicity 1
 C         0.294034         0.531023         0.414202
 C         1.172012        -0.286517        -0.553846
 O         1.976131        -1.307135        -0.142161
 C         2.647892        -0.180260        -0.684912
 C         2.609388        -0.276051        -2.302269
 C         3.019202        -1.597949        -3.098573
 O         1.777710        -2.030629        -3.671690
 C         0.738508        -1.755745        -2.761818
 C         1.041295        -0.409242        -2.122620
 H        -0.716428         0.800688        -0.061885
 H         0.222177         0.089354         1.468074
 H         0.783087         1.430842         0.707594
 H         3.281808         0.357646         0.091849
 H         2.871747         0.653621        -2.802549
 H         3.696314        -1.512603        -3.967038
 H         3.426897        -2.356673        -2.343868
 H        -0.133346        -1.520144        -3.507123
 H         0.507529        -2.501668        -1.952603
 H         0.673369         0.530544        -2.534200
