19
Iteration:   846
 C         0.275538         0.069746         0.383757
 C         1.220601        -0.194671        -0.704255
 O         2.328283        -1.167271        -0.315507
 C         2.644316         0.085218        -0.903870
 C         2.546791        -0.186351        -2.451615
 C         2.913032        -1.486601        -3.102793
 O         1.810813        -2.397638        -2.792188
 C         0.533508        -1.612958        -2.877585
 C         0.958183        -0.297709        -2.216397
 H        -0.290906         1.015454         0.168996
 H        -0.412214        -0.811178         0.388642
 H         0.773312         0.211249         1.362713
 H         3.596791         0.558779        -0.505696
 H         2.851908         0.664715        -3.036673
 H         2.946626        -1.252698        -4.183852
 H         3.785185        -1.894707        -2.574939
 H         0.033487        -1.485112        -3.836031
 H        -0.031745        -2.192080        -2.154856
 H         0.373632         0.575257        -2.648069
