19
Iteration:  3162charge 0 multiplicity 1
 C         0.216655         0.295851         0.301184
 C         1.289316        -0.267307        -0.652961
 O         2.144765        -1.322389        -0.214737
 C         2.693098        -0.063159        -0.837913
 C         2.619675        -0.172872        -2.355986
 C         2.933288        -1.447716        -3.176534
 O         1.844871        -2.294899        -3.048414
 C         0.552660        -1.606425        -2.814155
 C         1.008757        -0.328493        -2.140435
 H        -0.422293        -0.635923         0.635872
 H         0.758424         0.880483         1.049749
 H        -0.560733         0.877361        -0.186308
 H         3.421233         0.513597        -0.220573
 H         2.936103         0.722311        -2.848959
 H         3.094632        -1.255467        -4.284402
 H         3.713896        -2.034431        -2.793145
 H         0.106571        -1.466416        -3.841128
 H        -0.061403        -2.309908        -2.195302
 H         0.372903         0.533827        -2.203028
