19
Iteration:  3332
 C         0.200478         0.306265         0.420243
 C         1.255176        -0.102587        -0.621195
 O         2.042705        -1.288204        -0.198827
 C         2.716984        -0.261640        -0.820181
 C         2.576643        -0.211920        -2.327064
 C         2.989914        -1.480723        -3.119612
 O         1.806932        -2.293479        -3.310169
 C         0.639310        -1.637556        -2.815390
 C         1.066876        -0.252093        -2.158607
 H         0.426778         1.078007         1.175099
 H        -0.617149         0.749100        -0.156298
 H        -0.075627        -0.583789         1.154518
 H         3.422608         0.343092        -0.115719
 H         2.891422         0.817602        -2.722248
 H         3.460853        -1.237305        -4.135393
 H         3.792207        -2.087904        -2.526374
 H        -0.003601        -1.613628        -3.622722
 H         0.083455        -2.222235        -2.082838
 H         0.628539         0.614737        -2.753059
