19
Iteration:  2398
 C         0.236113         0.289979         0.332881
 C         1.230793        -0.200366        -0.594852
 O         2.202229        -1.166917        -0.166530
 C         2.694728         0.007842        -0.828843
 C         2.531822        -0.206363        -2.385083
 C         2.899157        -1.426161        -3.303622
 O         1.834351        -2.392032        -3.076383
 C         0.673752        -1.794840        -2.765996
 C         1.004872        -0.345998        -2.140441
 H        -0.314437         1.145615         0.110188
 H        -0.630173        -0.598296         0.351546
 H         0.703868         0.417620         1.288371
 H         3.453733         0.695528        -0.202908
 H         2.691599         0.733346        -2.893014
 H         2.895557        -1.116924        -4.420584
 H         3.866001        -1.891393        -3.061794
 H        -0.220095        -1.707771        -3.601620
 H         0.183437        -2.343570        -2.053429
 H         0.487699         0.587501        -2.616117
