19
Iteration:   110charge 0 multiplicity 1
 C         0.215383         0.396771         0.343518
 C         1.235009        -0.265709        -0.585073
 O         2.255187        -1.137064        -0.150099
 C         2.672495         0.046970        -0.891370
 C         2.518497        -0.217393        -2.385766
 C         2.991322        -1.481702        -3.122338
 O         1.798134        -2.333706        -3.267284
 C         0.607333        -1.789575        -2.786474
 C         0.994274        -0.481686        -2.095715
 H         0.258445         1.508777         0.400813
 H        -0.766774         0.066546         0.041731
 H         0.336312        -0.062203         1.327891
 H         3.308188         0.807043        -0.320503
 H         2.599383         0.705535        -2.954711
 H         3.398827        -1.292837        -4.097662
 H         3.605889        -2.122110        -2.567946
 H        -0.099434        -1.621385        -3.603450
 H         0.219381        -2.509589        -2.051654
 H         0.431214         0.429406        -2.443656
