19
Iteration:  1782
 C         0.322490         0.407672         0.399123
 C         1.212725        -0.197275        -0.644643
 O         2.057652        -1.279995        -0.273508
 C         2.679946        -0.087150        -0.896796
 C         2.446450        -0.129090        -2.389080
 C         2.966526        -1.417852        -3.172434
 O         1.904522        -2.288732        -3.225240
 C         0.698357        -1.853213        -2.640256
 C         0.932903        -0.375172        -2.141173
 H         0.230335         1.471486         0.174423
 H        -0.734364        -0.097393         0.351826
 H         0.928479         0.311809         1.461784
 H         3.559065         0.368502        -0.183598
 H         2.613267         0.864018        -2.900140
 H         3.437345        -1.413554        -4.184151
 H         3.733558        -1.837791        -2.451724
 H        -0.216366        -1.881038        -3.296576
 H         0.554032        -2.405048        -1.734839
 H         0.333975         0.411947        -2.666926
