19
Iteration:  3229
 C         0.399384         0.348768         0.503600
 C         1.077049        -0.218437        -0.711120
 O         2.023718        -1.372518        -0.338477
 C         2.644570        -0.223516        -0.845820
 C         2.560927        -0.128121        -2.358415
 C         2.996070        -1.400423        -3.143201
 O         1.952992        -2.381508        -2.927852
 C         0.602892        -1.647239        -2.913677
 C         0.966144        -0.206612        -2.273911
 H         0.345954        -0.349212         1.383368
 H         0.782658         1.350818         0.808753
 H        -0.756432         0.595425         0.467488
 H         3.293419         0.321487        -0.303882
 H         2.989799         0.788998        -2.652379
 H         3.144413        -1.044125        -4.239567
 H         3.902211        -1.903376        -2.762156
 H         0.229549        -1.566229        -3.852858
 H        -0.010483        -2.171773        -2.216975
 H         0.434808         0.609044        -2.685164
