19
Iteration:  4143charge 0 multiplicity 1
 C         0.327636         0.314156         0.376742
 C         1.262235        -0.298196        -0.631096
 O         1.929885        -1.506147        -0.192844
 C         2.661232        -0.394759        -0.604618
 C         2.670887        -0.308232        -2.211514
 C         2.900661        -1.715370        -2.712530
 O         1.799204        -1.998115        -3.612693
 C         0.607460        -1.256889        -3.108462
 C         1.157957        -0.084989        -2.219481
 H         0.941759         0.836559         1.221082
 H        -0.392603         0.986547        -0.036494
 H        -0.352929        -0.436426         0.757896
 H         3.155253         0.270276         0.247957
 H         3.418414         0.444195        -2.670228
 H         3.739477        -1.889664        -3.374817
 H         2.964519        -2.453471        -1.889200
 H         0.023375        -0.783348        -4.030464
 H        -0.093598        -1.984198        -2.676496
 H         0.819081         0.877830        -2.569567
