19
Iteration:  3529
 C         0.390833         0.488969         0.426744
 C         1.203673        -0.167807        -0.623444
 O         1.949171        -1.382128        -0.139236
 C         2.632370        -0.274707        -0.746439
 C         2.510160        -0.281368        -2.247849
 C         3.065654        -1.476860        -2.995481
 O         1.843336        -2.160233        -3.588430
 C         0.654409        -1.736663        -2.807238
 C         0.952850        -0.276790        -2.245177
 H        -0.631524         0.335210         0.342723
 H         0.768901         0.138705         1.320448
 H         0.635876         1.575832         0.631652
 H         3.359784         0.201298        -0.132400
 H         2.964202         0.690227        -2.573154
 H         3.686100        -1.252108        -3.856335
 H         3.565384        -2.103476        -2.335879
 H        -0.075889        -1.663992        -3.524266
 H         0.364065        -2.372515        -1.943140
 H         0.701650         0.696845        -2.661706
