19
Iteration:  4618charge 0 multiplicity 1
 C         0.269394         0.367791         0.334740
 C         1.187749        -0.270227        -0.618771
 O         1.775726        -1.551157        -0.223899
 C         2.614064        -0.426045        -0.620791
 C         2.693474        -0.291738        -2.232258
 C         3.060502        -1.553256        -3.023939
 O         1.758898        -2.157776        -3.294359
 C         0.690191        -1.255661        -3.072292
 C         1.232047        -0.109385        -2.203920
 H         0.222023        -0.085816         1.320622
 H         0.624179         1.469660         0.541390
 H        -0.803594         0.511658        -0.051506
 H         3.379941        -0.249116         0.045324
 H         3.389699         0.446674        -2.503680
 H         3.765988        -1.391867        -3.858171
 H         3.630715        -2.288908        -2.369600
 H         0.305271        -0.904072        -3.957622
 H        -0.033618        -1.783404        -2.502558
 H         0.930062         0.940478        -2.356719
