19
Iteration:  3992charge 0 multiplicity 1
 C         0.405745         0.598301         0.525159
 C         1.125228        -0.153589        -0.570446
 O         1.787568        -1.492001        -0.272675
 C         2.580740        -0.382602        -0.619245
 C         2.658319        -0.412901        -2.121945
 C         3.029400        -1.589343        -3.023908
 O         1.844466        -1.977934        -3.714296
 C         0.656155        -1.547969        -2.929210
 C         1.173114        -0.252475        -2.172407
 H        -0.114495        -0.211367         1.317305
 H         1.009605         1.275992         1.135461
 H        -0.564573         0.803846         0.151615
 H         3.405625        -0.093264         0.136816
 H         2.916361         0.567761        -2.650457
 H         3.843099        -1.294833        -3.714289
 H         3.396710        -2.491262        -2.347226
 H        -0.108051        -1.616842        -3.711604
 H         0.650197        -2.328050        -2.112718
 H         0.844662         0.667336        -2.716064
