19
Iteration:  3145
 C         0.245005         0.223784         0.328208
 C         1.262331        -0.273162        -0.692096
 O         2.186266        -1.225917        -0.128277
 C         2.705114        -0.082260        -0.760854
 C         2.540292        -0.146186        -2.375796
 C         2.940870        -1.436246        -3.133344
 O         1.743112        -2.397897        -3.158786
 C         0.622346        -1.630504        -2.808473
 C         1.035482        -0.265179        -2.196529
 H        -0.553767        -0.504422         0.476506
 H         0.755652         0.405414         1.294372
 H        -0.176959         1.108059        -0.302643
 H         3.343420         0.538056        -0.208067
 H         2.917130         0.784709        -2.883651
 H         3.185032        -1.067557        -4.120249
 H         3.870474        -1.989027        -2.680590
 H        -0.073199        -1.530107        -3.687698
 H         0.038121        -2.141695        -2.064550
 H         0.557215         0.559517        -2.782910
