19
Iteration:  3189charge 0 multiplicity 1
 C         0.214488         0.343129         0.466240
 C         1.275225        -0.215757        -0.607701
 O         2.090811        -1.346573        -0.352430
 C         2.700291        -0.187085        -0.853673
 C         2.528032        -0.123820        -2.365601
 C         2.909534        -1.387309        -3.171432
 O         1.908026        -2.466188        -2.940269
 C         0.668289        -1.574613        -2.867760
 C         0.972064        -0.228534        -2.231770
 H        -0.134055        -0.442834         1.041957
 H         0.699100         1.157486         1.008586
 H        -0.700616         0.600232        -0.155775
 H         3.554002         0.233616        -0.281152
 H         3.032457         0.809456        -2.771606
 H         2.997535        -1.281303        -4.237000
 H         3.886026        -1.755142        -2.678181
 H         0.398532        -1.434892        -4.055045
 H        -0.169843        -2.083604        -2.383057
 H         0.192646         0.549795        -2.444380
