19
Iteration:  3185
 C         0.211327         0.337735         0.434912
 C         1.247167        -0.216164        -0.557866
 O         2.128072        -1.327288        -0.361529
 C         2.724447        -0.197065        -0.844996
 C         2.521149        -0.158715        -2.368703
 C         2.933514        -1.369453        -3.166692
 O         1.880914        -2.444026        -2.946493
 C         0.667887        -1.560421        -2.866044
 C         0.978017        -0.257261        -2.237041
 H        -0.303257        -0.472153         1.028947
 H         0.627060         1.195938         0.991692
 H        -0.724544         0.666972        -0.139967
 H         3.507021         0.210445        -0.301290
 H         2.931777         0.720289        -2.778347
 H         2.963927        -1.321558        -4.270612
 H         3.833157        -1.756859        -2.712040
 H         0.364577        -1.354585        -3.934341
 H        -0.096596        -2.128918        -2.342158
 H         0.305857         0.499608        -2.555383
