19
Iteration:   174charge 0 multiplicity 1
 C         0.317432         0.348510         0.422929
 C         1.242199        -0.181308        -0.630131
 O         2.050131        -1.317580        -0.430883
 C         2.682542        -0.154723        -0.941117
 C         2.460501        -0.106720        -2.462795
 C         3.048297        -1.411420        -3.094129
 O         1.924888        -2.456238        -3.032550
 C         0.663838        -1.689624        -2.624112
 C         0.871238        -0.200890        -2.180259
 H        -0.509824         0.853289        -0.045366
 H        -0.269725        -0.485159         0.972202
 H         0.873007         0.991693         1.105194
 H         3.428492         0.269421        -0.354777
 H         2.727641         0.825553        -2.948052
 H         3.478263        -1.296407        -4.126779
 H         3.753372        -1.744945        -2.317409
 H         0.055175        -1.704579        -3.500074
 H         0.176128        -2.327335        -1.840652
 H         0.205373         0.617487        -2.644549
