19
Iteration:  4464charge 0 multiplicity 1
 C         0.239598         0.374315         0.398850
 C         1.232390        -0.230273        -0.544415
 O         1.750539        -1.510868        -0.327376
 C         2.722499        -0.419456        -0.599821
 C         2.752695        -0.319690        -2.162522
 C         2.998658        -1.662879        -2.975620
 O         1.760913        -2.132068        -3.409305
 C         0.683035        -1.239316        -3.079865
 C         1.210081        -0.113977        -2.197686
 H         0.371713         0.171051         1.404708
 H         0.245282         1.492903         0.357206
 H        -0.773086        -0.005920         0.232980
 H         3.442374        -0.017016         0.243770
 H         3.372889         0.504303        -2.584775
 H         3.776681        -1.502554        -3.745346
 H         3.460836        -2.306328        -2.164698
 H         0.130058        -0.918685        -4.066664
 H        -0.143106        -1.820136        -2.607609
 H         0.804088         0.887023        -2.585647
