19
Iteration:  1454charge 0 multiplicity 1
 C         0.237295         0.367710         0.363262
 C         1.190903        -0.207913        -0.653674
 O         2.176171        -1.225823        -0.216098
 C         2.741193        -0.095248        -0.800032
 C         2.552756        -0.201846        -2.417963
 C         2.947186        -1.413343        -3.096825
 O         1.864697        -2.326209        -3.301060
 C         0.586650        -1.786432        -2.610791
 C         0.967897        -0.339970        -2.203617
 H        -0.331671         1.199029        -0.061120
 H        -0.545494        -0.431768         0.644861
 H         0.741515         0.831572         1.211533
 H         3.415556         0.483599        -0.285351
 H         2.671098         0.675854        -2.863455
 H         3.525699        -1.231681        -4.001064
 H         3.705721        -1.939759        -2.522314
 H        -0.153801        -1.655003        -3.389619
 H         0.208357        -2.468096        -1.884593
 H         0.376454         0.361606        -2.768490
