19
Iteration:   678charge 0 multiplicity 1
 C         0.245416         0.450874         0.309313
 C         1.221910        -0.190929        -0.562119
 O         2.094690        -1.223029        -0.265905
 C         2.718899        -0.131101        -0.859045
 C         2.481275        -0.147092        -2.357332
 C         2.921506        -1.392355        -3.266645
 O         1.907520        -2.399117        -3.172470
 C         0.724607        -1.806063        -2.604339
 C         0.977937        -0.362616        -2.107407
 H        -0.273459         1.113429        -0.306796
 H        -0.540237        -0.506685         0.564274
 H         0.520083         0.853089         1.325267
 H         3.540940         0.314161        -0.415112
 H         2.688559         0.756651        -2.908127
 H         2.942200        -1.053027        -4.400116
 H         3.930492        -1.861537        -3.069501
 H        -0.155012        -1.680895        -3.217923
 H         0.470745        -2.512011        -1.831131
 H         0.296406         0.350237        -2.578127
