19
Iteration:  4259
 C         0.218681         0.524534         0.461156
 C         1.208405        -0.242292        -0.591468
 O         1.767047        -1.525587        -0.394504
 C         2.653054        -0.417044        -0.621498
 C         2.786190        -0.284955        -2.168561
 C         3.083769        -1.663330        -2.964060
 O         1.784295        -1.997759        -3.580666
 C         0.680246        -1.421959        -2.887839
 C         1.135517        -0.199669        -2.154403
 H         0.459849         0.295868         1.461617
 H         0.378885         1.610781         0.261493
 H        -0.820585         0.218235         0.066391
 H         3.407021        -0.210880         0.236808
 H         3.311978         0.615464        -2.402204
 H         3.897080        -1.680408        -3.709470
 H         3.307437        -2.354377        -2.175194
 H        -0.214029        -1.256565        -3.432794
 H         0.345776        -2.180258        -2.014500
 H         0.852147         0.641894        -2.815778
