19
Iteration:  4924
 C         0.287822         0.413598         0.293625
 C         1.229040        -0.336294        -0.631483
 O         1.833083        -1.547921        -0.190198
 C         2.654869        -0.461465        -0.545963
 C         2.696586        -0.351986        -2.082408
 C         2.981516        -1.598535        -2.977875
 O         1.757821        -2.095050        -3.389324
 C         0.652244        -1.207570        -3.194212
 C         1.224626        -0.116353        -2.173403
 H         0.706703         0.969887         1.244202
 H        -0.183946         1.218610        -0.275135
 H        -0.605110        -0.187323         0.599057
 H         3.321069        -0.017669         0.322164
 H         3.330476         0.448395        -2.483915
 H         3.676906        -1.393458        -3.787233
 H         3.462464        -2.414302        -2.514578
 H         0.362926        -0.724008        -4.066443
 H        -0.240984        -1.778587        -2.788492
 H         0.933688         0.927631        -2.465299
