19
Iteration:  2607charge 0 multiplicity 1
 C         0.396139         0.512869         0.520116
 C         1.135263        -0.165832        -0.614761
 O         2.001725        -1.276741        -0.276652
 C         2.597788        -0.096790        -0.875471
 C         2.473767        -0.137787        -2.373746
 C         3.004819        -1.378317        -3.296204
 O         2.055623        -2.358070        -3.120464
 C         0.727495        -1.848743        -2.734555
 C         0.812322        -0.449681        -2.185776
 H        -0.046208         1.387022         0.255431
 H        -0.545962        -0.164938         0.817801
 H         1.126591         0.651925         1.359219
 H         3.341266         0.187089        -0.232433
 H         2.704843         0.827085        -2.751577
 H         3.128780        -1.088001        -4.337841
 H         3.909007        -1.864044        -2.945017
 H        -0.023817        -1.972597        -3.566718
 H         0.427582        -2.535800        -1.912704
 H         0.238801         0.367943        -2.833958
