19
Iteration:  4563charge 0 multiplicity 1
 C         0.317857         0.425950         0.445676
 C         1.168006        -0.271138        -0.721778
 O         1.603109        -1.621234        -0.386642
 C         2.622907        -0.528727        -0.674523
 C         2.799627        -0.233516        -2.169796
 C         3.091761        -1.476597        -3.080966
 O         1.792169        -2.241613        -3.070163
 C         0.736347        -1.221149        -3.018960
 C         1.184951        -0.066655        -2.299137
 H         0.933843         0.413987         1.291570
 H         0.102184         1.506831         0.313629
 H        -0.659655        -0.072749         0.668776
 H         3.413515        -0.311795         0.081853
 H         3.521143         0.568101        -2.348560
 H         3.322676        -1.119122        -4.067299
 H         3.764404        -2.258142        -2.671236
 H         0.410745        -0.916053        -4.030539
 H        -0.100447        -1.676149        -2.500728
 H         0.840319         0.987217        -2.425340
