19
Iteration:  2622
 C         0.440992         0.503045         0.466687
 C         1.147921        -0.243090        -0.640227
 O         1.957731        -1.305030        -0.174252
 C         2.563230        -0.134212        -0.866228
 C         2.434199        -0.155172        -2.427675
 C         2.972407        -1.264329        -3.202767
 O         2.008848        -2.398203        -3.163430
 C         0.727294        -1.910210        -2.727310
 C         0.949257        -0.385796        -2.242515
 H        -0.022351         1.457212        -0.089591
 H        -0.216133        -0.096051         1.075838
 H         1.229739         0.778937         1.302865
 H         3.300759         0.576140        -0.390304
 H         2.688436         0.875335        -2.895397
 H         3.063647        -0.892187        -4.232893
 H         4.049517        -1.494907        -2.884108
 H         0.028305        -1.849981        -3.540426
 H         0.312763        -2.457679        -1.922005
 H         0.221884         0.288584        -2.566233
