19
Iteration:  2264
 C         0.259319         0.423251         0.362666
 C         1.215002        -0.284805        -0.619149
 O         2.183534        -1.253285        -0.160657
 C         2.629822        -0.037795        -0.860118
 C         2.555053        -0.141815        -2.394473
 C         2.943764        -1.351407        -3.239136
 O         1.891373        -2.360765        -3.107197
 C         0.598206        -1.846272        -2.768650
 C         0.995417        -0.409245        -2.155770
 H        -0.353564         1.171126        -0.175810
 H        -0.349905        -0.292389         0.908433
 H         0.833119         1.104547         1.030637
 H         3.270413         0.642031        -0.243545
 H         2.739619         0.787438        -2.909176
 H         2.996966        -1.215954        -4.357161
 H         3.888159        -1.876339        -3.011454
 H        -0.088111        -1.847406        -3.689303
 H         0.130456        -2.425892        -1.959346
 H         0.331235         0.417615        -2.431680
