19
Iteration:  2305charge 0 multiplicity 1
 C         0.437689         0.534501         0.492555
 C         1.171375        -0.195823        -0.602189
 O         1.914874        -1.313173        -0.203498
 C         2.676003        -0.134604        -0.926713
 C         2.422027        -0.127585        -2.471211
 C         2.938425        -1.254146        -3.319527
 O         2.064856        -2.396479        -2.977341
 C         0.717566        -1.920973        -2.794260
 C         0.870651        -0.440009        -2.154924
 H         0.107425         1.673194         0.259533
 H        -0.406120        -0.013950         0.718085
 H         1.165193         0.668145         1.384080
 H         3.413828         0.264689        -0.424298
 H         2.680525         0.892487        -2.866070
 H         3.018252        -0.904847        -4.383738
 H         3.941749        -1.546191        -2.967850
 H         0.215622        -1.725321        -3.768122
 H         0.113998        -2.872631        -2.358571
 H         0.215980         0.242520        -2.601560
