19
Iteration:  4066
 C         0.203194         0.559396         0.259634
 C         1.232317        -0.225413        -0.579852
 O         1.754413        -1.537399        -0.152849
 C         2.677854        -0.449115        -0.556841
 C         2.787345        -0.426002        -2.169016
 C         2.994535        -1.620622        -3.085876
 O         1.765878        -1.749402        -3.761699
 C         0.709736        -1.527720        -2.758320
 C         1.219894        -0.299167        -2.054335
 H         0.415483         0.623847         1.390269
 H         0.341861         1.568941        -0.069647
 H        -0.795711         0.138557         0.158105
 H         3.419292        -0.048006         0.266659
 H         3.335324         0.474121        -2.595478
 H         3.743504        -1.473509        -3.843621
 H         3.189994        -2.557748        -2.621800
 H        -0.292585        -1.552173        -3.312475
 H         0.469443        -2.402681        -2.040225
 H         0.888638         0.556983        -2.604047
