19
Iteration:  2412charge 0 multiplicity 1
 C         0.242341         0.216558         0.372001
 C         1.241743        -0.238841        -0.655082
 O         2.252859        -1.119827        -0.180806
 C         2.666321         0.089736        -0.856338
 C         2.544559        -0.225959        -2.320114
 C         2.872554        -1.460889        -3.160374
 O         1.862714        -2.435134        -3.152802
 C         0.558115        -1.679500        -2.780168
 C         0.999280        -0.380057        -2.178716
 H        -0.296346         0.997856        -0.187415
 H        -0.417852        -0.534803         0.751983
 H         0.740857         0.597544         1.321376
 H         3.341783         0.742139        -0.372617
 H         2.933079         0.621345        -2.923230
 H         2.942911        -0.982608        -4.193559
 H         3.809825        -2.010993        -2.970057
 H         0.071757        -1.617867        -3.758267
 H         0.040896        -2.366725        -2.094580
 H         0.439995         0.448721        -2.510355
