19
Iteration:  3903charge 0 multiplicity 1
 C         0.174748         0.212831         0.258911
 C         1.298352        -0.234903        -0.604444
 O         2.026433        -1.375197        -0.067891
 C         2.721432        -0.203511        -0.700324
 C         2.773597        -0.400337        -2.254337
 C         2.906013        -1.734238        -2.901060
 O         1.725085        -1.983042        -3.614088
 C         0.568284        -1.344184        -2.860612
 C         1.155791        -0.166340        -2.147455
 H        -0.796798        -0.068004        -0.360221
 H         0.162067        -0.296294         1.240818
 H         0.049447         1.257153         0.295005
 H         3.420486         0.276020        -0.147656
 H         3.356957         0.292226        -2.858180
 H         3.724095        -1.568957        -3.558889
 H         3.143833        -2.615935        -2.179299
 H        -0.135820        -1.018630        -3.609303
 H         0.001708        -1.988684        -2.178405
 H         0.819777         0.787739        -2.453409
