19
Iteration:  4773
 C         0.242417         0.423821         0.342659
 C         1.174862        -0.276394        -0.630879
 O         1.728294        -1.543417        -0.288332
 C         2.654937        -0.478981        -0.504665
 C         2.777015        -0.340089        -2.100456
 C         3.005625        -1.518343        -3.127628
 O         1.742796        -2.214844        -3.237067
 C         0.745289        -1.206446        -3.137237
 C         1.255901        -0.154113        -2.193290
 H         0.784014         0.579178         1.391654
 H        -0.011925         1.406124         0.064564
 H        -0.745527        -0.129114         0.632628
 H         3.481736        -0.111598         0.211847
 H         3.263065         0.471393        -2.496667
 H         3.107094        -0.992386        -4.037103
 H         3.814285        -2.222634        -2.877963
 H         0.651227        -0.630739        -4.174260
 H        -0.205901        -1.684623        -2.921138
 H         0.986712         0.905949        -2.394372
