19
Iteration:  3069charge 0 multiplicity 1
 C         0.324079         0.322402         0.414908
 C         1.170913        -0.265505        -0.718033
 O         2.182677        -1.268064        -0.333026
 C         2.605945         0.029027        -0.827931
 C         2.541805        -0.162076        -2.354851
 C         3.042527        -1.575274        -2.892807
 O         1.829726        -2.183345        -3.354788
 C         0.539755        -1.778787        -2.707823
 C         0.973125        -0.345055        -2.196182
 H        -0.592741         0.740823         0.014706
 H         0.357840        -0.432751         1.210693
 H         0.926496         1.223347         0.853852
 H         3.290704         0.520690        -0.286774
 H         2.672965         0.727289        -3.009840
 H         3.723570        -1.518143        -3.747453
 H         3.569042        -1.983354        -2.002727
 H        -0.203739        -1.871223        -3.389290
 H         0.362737        -2.422097        -1.809446
 H         0.265014         0.414057        -2.676007
