19
Iteration:  3692
 C         0.274455         0.363674         0.478019
 C         1.210240        -0.161443        -0.632742
 O         2.066438        -1.359926        -0.150493
 C         2.677573        -0.195530        -0.711242
 C         2.647904        -0.339297        -2.242149
 C         2.946106        -1.721620        -2.875318
 O         1.772924        -1.950467        -3.663115
 C         0.617984        -1.605331        -2.907401
 C         1.044807        -0.244717        -2.204850
 H         0.697212         0.055662         1.383014
 H         0.268259         1.446644         0.246592
 H        -0.869040        -0.013367         0.507021
 H         3.498791         0.234750        -0.026451
 H         3.050702         0.468342        -2.923106
 H         3.815715        -1.703898        -3.605862
 H         3.142821        -2.492111        -2.038201
 H        -0.193503        -1.480790        -3.697043
 H         0.320693        -2.470881        -2.326134
 H         0.754466         0.652989        -2.594080
