19
Iteration:   796charge 0 multiplicity 1
 C         0.178680         0.359933         0.322353
 C         1.213611        -0.225820        -0.661710
 O         2.171562        -1.252969        -0.318414
 C         2.767558        -0.067470        -0.864379
 C         2.488991        -0.165715        -2.420389
 C         2.878781        -1.370164        -3.250149
 O         1.896732        -2.342113        -3.032212
 C         0.682672        -1.833180        -2.583111
 C         0.992366        -0.359608        -2.141995
 H         0.171672         1.476429         0.098922
 H        -0.786363        -0.019360         0.301444
 H         0.590872         0.169550         1.402960
 H         3.442476         0.521786        -0.354807
 H         2.721059         0.878199        -2.904580
 H         2.896982        -0.965060        -4.249175
 H         3.819313        -1.814544        -2.936620
 H        -0.079493        -1.864601        -3.452160
 H         0.360538        -2.369723        -1.614370
 H         0.293902         0.317080        -2.712839
