19
Iteration:   420charge 0 multiplicity 1
 C         0.357101         0.590078         0.407375
 C         1.130741        -0.262074        -0.559649
 O         2.140611        -1.116270        -0.102074
 C         2.595105         0.078002        -0.850035
 C         2.441924        -0.273573        -2.329278
 C         2.976618        -1.589864        -3.086447
 O         1.816848        -2.076088        -3.691778
 C         0.806291        -2.041283        -2.573789
 C         0.956877        -0.605217        -2.120130
 H         0.479580         1.647215        -0.014500
 H        -0.661988         0.308009         0.421818
 H         0.592558         0.543901         1.435501
 H         3.285508         0.656196        -0.170557
 H         2.441328         0.543388        -3.016108
 H         3.589054        -1.207393        -3.897521
 H         3.586701        -2.296053        -2.570077
 H        -0.177054        -2.156825        -2.874923
 H         1.017553        -2.809043        -1.803008
 H         0.298275        -0.026411        -2.704589
