19
Iteration:  4729
 C         0.306258         0.361685         0.393271
 C         1.167261        -0.299398        -0.658731
 O         1.652051        -1.582853        -0.426124
 C         2.649649        -0.394019        -0.673019
 C         2.767139        -0.251397        -2.223018
 C         3.050894        -1.629989        -2.909142
 O         1.771561        -2.129490        -3.223550
 C         0.728015        -1.182407        -3.059732
 C         1.213951        -0.079254        -2.162643
 H         1.114647         0.685416         1.211879
 H        -0.225043         1.236882         0.086076
 H        -0.400706        -0.434116         0.897626
 H         3.336667        -0.532753         0.192431
 H         3.260076         0.597967        -2.481370
 H         3.743670        -1.443289        -3.723201
 H         3.426926        -2.366158        -2.151314
 H         0.433147        -0.885531        -4.082247
 H        -0.071407        -1.764356        -2.628128
 H         0.937259         0.865791        -2.646786
