19
Iteration:  1132charge 0 multiplicity 1
 C         0.221830         0.145361         0.388075
 C         1.210147        -0.127309        -0.682820
 O         2.173932        -1.112821        -0.228967
 C         2.699956         0.068925        -0.911498
 C         2.596593        -0.218096        -2.462987
 C         2.935682        -1.634215        -2.935747
 O         1.700101        -2.236942        -3.382405
 C         0.705514        -1.720255        -2.597856
 C         1.031022        -0.345643        -2.174188
 H        -0.739105         0.715873         0.058310
 H        -0.124169        -0.770797         0.660033
 H         0.669610         0.805205         1.238330
 H         3.497868         0.581858        -0.510111
 H         3.080313         0.639244        -2.980377
 H         3.634113        -1.719356        -3.815304
 H         3.475897        -2.136340        -2.095321
 H        -0.264948        -1.835623        -3.172285
 H         0.580413        -2.353684        -1.744396
 H         0.344141         0.525633        -2.570849
