19
Iteration:  4311charge 0 multiplicity 1
 C         0.309231         0.645518         0.485813
 C         1.145757        -0.208490        -0.552370
 O         1.734339        -1.517649        -0.114155
 C         2.591270        -0.413369        -0.559781
 C         2.729239        -0.410202        -2.175767
 C         3.006289        -1.682502        -3.007237
 O         1.863510        -1.846499        -3.822696
 C         0.713923        -1.588258        -3.041187
 C         1.184253        -0.298762        -2.080494
 H         0.926557         0.894173         1.302680
 H        -0.003246         1.620960        -0.082694
 H        -0.708391         0.270106         0.796844
 H         3.341562        -0.113818         0.194557
 H         3.347060         0.409040        -2.554741
 H         3.797276        -1.349998        -3.697962
 H         3.357681        -2.550437        -2.374395
 H        -0.143638        -1.185211        -3.645498
 H         0.571869        -2.415718        -2.406176
 H         0.724189         0.588771        -2.612668
