19
Iteration:   814charge 0 multiplicity 1
 C         0.192999         0.237938         0.313690
 C         1.297960        -0.121335        -0.608257
 O         2.229779        -1.269924        -0.303820
 C         2.691455        -0.020607        -0.946057
 C         2.517536        -0.143212        -2.457676
 C         2.923859        -1.373999        -3.224624
 O         1.870710        -2.448776        -2.939017
 C         0.607989        -1.684139        -2.638886
 C         0.952417        -0.316289        -2.122782
 H        -0.212844         1.309810         0.066910
 H        -0.684634        -0.395677        -0.047591
 H         0.265706        -0.017290         1.429396
 H         3.612871         0.465169        -0.498079
 H         2.849144         0.763646        -2.960600
 H         3.073739        -1.277292        -4.374806
 H         3.915000        -1.803177        -2.923173
 H        -0.121792        -1.702288        -3.433057
 H         0.263260        -2.370002        -1.866030
 H         0.179241         0.454685        -2.509793
