19
Iteration:  3929
 C         0.136239         0.301947         0.314723
 C         1.253800        -0.206188        -0.606223
 O         2.054509        -1.387448        -0.261894
 C         2.736332        -0.274092        -0.578150
 C         2.816767        -0.297148        -2.183993
 C         2.877704        -1.713311        -2.941609
 O         1.708101        -2.016965        -3.610245
 C         0.580332        -1.431468        -2.912177
 C         1.192241        -0.216878        -2.108554
 H        -0.846087        -0.347562         0.186044
 H         0.414688         0.448828         1.376135
 H        -0.271527         1.224209        -0.204966
 H         3.569544         0.130755         0.142866
 H         3.433216         0.493491        -2.692986
 H         3.780023        -1.716083        -3.655014
 H         3.016999        -2.498886        -2.076732
 H        -0.233937        -1.195828        -3.617827
 H        -0.009671        -2.053496        -2.223583
 H         0.773666         0.904450        -2.328811
