19
Iteration:  3548charge 0 multiplicity 1
 C         0.353600         0.473767         0.459904
 C         1.202573        -0.181646        -0.613057
 O         1.859483        -1.399262        -0.342755
 C         2.666212        -0.215139        -0.743886
 C         2.629598        -0.239816        -2.282071
 C         3.011085        -1.515060        -3.018360
 O         1.855309        -2.131527        -3.445786
 C         0.662311        -1.688323        -2.813701
 C         1.030941        -0.349229        -2.128968
 H        -0.636707         0.016709         0.505052
 H         0.948146         0.526509         1.414366
 H         0.197137         1.582194         0.231415
 H         3.452937         0.027113        -0.139002
 H         3.062778         0.667556        -2.750747
 H         3.640905        -1.260872        -3.895874
 H         3.576395        -2.205017        -2.350327
 H        -0.199846        -1.385707        -3.520376
 H         0.417402        -2.389288        -1.946369
 H         0.368810         0.366596        -2.490537
