19
Iteration:  2749charge 0 multiplicity 1
 C         0.308169         0.161913         0.449384
 C         1.224810        -0.242717        -0.639882
 O         2.195612        -1.249222        -0.401744
 C         2.702179         0.009257        -0.968311
 C         2.407249        -0.102620        -2.510095
 C         2.987648        -1.456863        -2.951936
 O         1.826544        -2.346959        -2.823612
 C         0.640170        -1.662397        -2.900262
 C         0.958514        -0.323401        -2.233095
 H         0.080438         1.172303         0.341628
 H        -0.663702        -0.326558         0.218446
 H         0.760563        -0.010901         1.435649
 H         3.529819         0.435802        -0.402167
 H         2.707153         0.771333        -3.037469
 H         3.251420        -1.255951        -4.031997
 H         3.804901        -1.872637        -2.389298
 H         0.145728        -1.466959        -3.904639
 H        -0.119483        -2.252387        -2.233851
 H         0.355706         0.614590        -2.561192
