19
Iteration:  1585
 C         0.260891         0.314080         0.265437
 C         1.272519        -0.235754        -0.632958
 O         2.169309        -1.286795        -0.230000
 C         2.666152         0.026796        -0.822780
 C         2.512531        -0.109236        -2.450374
 C         2.961554        -1.445048        -3.145639
 O         1.816097        -2.339057        -3.181732
 C         0.636230        -1.769405        -2.596493
 C         0.973361        -0.322750        -2.165597
 H         0.006311         1.288855        -0.044497
 H        -0.662166        -0.345004         0.383654
 H         0.777165         0.286746         1.282320
 H         3.444316         0.411402        -0.197634
 H         2.868102         0.809405        -2.844329
 H         3.252858        -1.344687        -4.223729
 H         3.784642        -1.937193        -2.587095
 H        -0.148510        -1.657141        -3.411423
 H         0.238186        -2.520889        -1.832236
 H         0.225579         0.388339        -2.583750
