19
Iteration:   745charge 0 multiplicity 1
 C         0.462302         0.724948         0.485506
 C         1.141577        -0.152235        -0.559207
 O         1.992103        -1.288216        -0.179884
 C         2.560065        -0.203582        -0.903177
 C         2.429523        -0.143118        -2.407424
 C         2.982848        -1.262105        -3.274910
 O         2.017615        -2.382073        -3.275786
 C         0.736601        -1.998283        -2.676529
 C         0.895696        -0.533051        -2.151429
 H        -0.092145         1.505352         0.030872
 H        -0.370914        -0.078019         0.868827
 H         1.001000         0.933787         1.335377
 H         3.405573         0.175335        -0.298643
 H         2.535244         0.855593        -2.622232
 H         3.160360        -0.807242        -4.342243
 H         3.990658        -1.662771        -2.971730
 H         0.081836        -1.964970        -3.506068
 H         0.366625        -2.659022        -1.949043
 H         0.211579         0.098272        -2.636070
