19
Iteration:  2663
 C         0.198901         0.521390         0.342798
 C         1.266555        -0.220737        -0.527922
 O         2.091097        -1.359606        -0.210882
 C         2.712999        -0.093251        -0.879135
 C         2.451342        -0.174190        -2.385223
 C         2.908023        -1.256255        -3.283840
 O         1.962870        -2.404447        -3.140587
 C         0.688921        -1.820813        -2.723347
 C         0.969201        -0.434649        -2.098827
 H        -0.160465         1.320770        -0.208835
 H        -0.647189        -0.122471         0.754600
 H         0.601994         1.167953         1.218223
 H         3.500192         0.285974        -0.319063
 H         2.905282         0.766805        -2.756427
 H         3.004617        -0.999760        -4.346025
 H         3.893567        -1.641720        -2.969521
 H         0.029759        -1.769189        -3.638195
 H         0.301252        -2.556814        -2.039625
 H         0.309400         0.373535        -2.625911
