19
Iteration:  3398
 C         0.308945         0.329071         0.425179
 C         1.244194        -0.226860        -0.545775
 O         2.016914        -1.332183        -0.263518
 C         2.698611        -0.106486        -0.785861
 C         2.527717        -0.179937        -2.368228
 C         2.930304        -1.585425        -2.923690
 O         1.807119        -2.184673        -3.453069
 C         0.695002        -1.675824        -2.841323
 C         1.032356        -0.279111        -2.204103
 H         0.573783         1.338738         0.665625
 H        -0.663109         0.366065        -0.022740
 H         0.382950        -0.171065         1.451898
 H         3.462225         0.458258        -0.284157
 H         2.943724         0.714238        -2.903123
 H         3.715736        -1.591811        -3.729655
 H         3.298053        -2.141172        -1.977144
 H         0.016143        -1.593160        -3.624827
 H         0.293386        -2.216623        -1.998606
 H         0.491352         0.669880        -2.426611
