19
Iteration:  1420charge 0 multiplicity 1
 C         0.199850         0.213778         0.380583
 C         1.268918        -0.113902        -0.642200
 O         2.176121        -1.072910        -0.161260
 C         2.684642         0.067119        -0.861517
 C         2.597214        -0.296749        -2.418981
 C         2.995487        -1.669925        -2.997863
 O         1.767560        -2.179465        -3.559723
 C         0.625797        -1.776538        -2.546904
 C         0.985102        -0.363592        -2.144663
 H        -0.372781         1.157728        -0.018884
 H        -0.559015        -0.636302         0.590346
 H         0.570604         0.240830         1.365408
 H         3.350994         0.747853        -0.301761
 H         2.796051         0.447592        -3.057995
 H         3.679954        -1.590411        -3.846229
 H         3.316811        -2.249100        -2.109452
 H        -0.323022        -1.735277        -3.060399
 H         0.714086        -2.578545        -1.856327
 H         0.396039         0.395566        -2.630288
