19
Iteration:   920charge 0 multiplicity 1
 C         0.280604         0.132327         0.472209
 C         1.258274        -0.257953        -0.628159
 O         2.353353        -1.128363        -0.280384
 C         2.634419         0.160563        -0.940251
 C         2.469544        -0.145442        -2.422645
 C         2.986510        -1.557149        -2.964774
 O         1.716551        -2.466777        -3.077209
 C         0.547232        -1.588775        -2.904498
 C         0.997212        -0.339345        -2.234554
 H        -0.541120         0.682919         0.186557
 H        -0.067490        -0.799993         1.034133
 H         0.827561         0.755542         1.072971
 H         3.480643         0.905825        -0.421179
 H         2.665177         0.706660        -3.048944
 H         3.539598        -1.461766        -3.908475
 H         3.606299        -2.093583        -2.147636
 H         0.069072        -1.364494        -3.937162
 H        -0.224196        -2.240689        -2.364340
 H         0.393812         0.450802        -2.499021
