19
Iteration:  2799
 C         0.213614         0.131333         0.487358
 C         1.201884        -0.294729        -0.637396
 O         2.306059        -1.106826        -0.244762
 C         2.718820         0.139675        -0.954128
 C         2.545901        -0.193128        -2.447542
 C         2.908211        -1.558810        -3.050749
 O         1.785470        -2.425996        -2.978271
 C         0.595496        -1.590591        -2.964622
 C         0.972565        -0.358065        -2.178741
 H        -0.532984         0.923756         0.105952
 H        -0.422544        -0.681760         0.815588
 H         0.798731         0.573956         1.237590
 H         3.421883         0.631320        -0.382803
 H         2.733883         0.765808        -2.926193
 H         3.221779        -1.413169        -4.077137
 H         3.730058        -1.897258        -2.407550
 H         0.394497        -1.139691        -3.990335
 H        -0.217642        -2.188669        -2.680351
 H         0.484625         0.509425        -2.396331
