19
Iteration:  4198charge 0 multiplicity 1
 C         0.104133         0.251936         0.272532
 C         1.208344        -0.198809        -0.585773
 O         1.958250        -1.443971        -0.200890
 C         2.752941        -0.296972        -0.628294
 C         2.789706        -0.387417        -2.138248
 C         2.921106        -1.705852        -2.944764
 O         1.673372        -2.062022        -3.520906
 C         0.633896        -1.229978        -2.987915
 C         1.266187        -0.126289        -2.159982
 H         0.407250        -0.050767         1.361935
 H        -0.113286         1.297164         0.298077
 H        -0.856307        -0.186733         0.055491
 H         3.627543        -0.091670         0.103952
 H         3.497451         0.440206        -2.520965
 H         3.619307        -1.631958        -3.797913
 H         3.264401        -2.543309        -2.263795
 H         0.079572        -0.883328        -3.924599
 H         0.181328        -1.920460        -2.397293
 H         1.011059         0.860114        -2.531814
