19
Iteration:  3641
 C         0.244880         0.245680         0.359655
 C         1.291688        -0.232759        -0.655879
 O         2.121916        -1.308072        -0.149676
 C         2.710241        -0.163013        -0.725859
 C         2.651116        -0.288412        -2.252427
 C         2.976319        -1.653019        -2.867194
 O         1.694480        -2.098087        -3.511058
 C         0.489269        -1.433920        -2.919965
 C         1.129520        -0.310069        -2.209162
 H         0.074092        -0.597304         1.023361
 H         0.350737         1.253523         0.737029
 H        -0.658858         0.222292        -0.180892
 H         3.404419         0.479279        -0.044636
 H         3.109938         0.585956        -2.727204
 H         3.736543        -1.593572        -3.628738
 H         3.274921        -2.312325        -2.096928
 H        -0.117320        -1.217650        -3.755245
 H         0.061600        -2.156445        -2.183139
 H         0.733232         0.734466        -2.557404
