19
Iteration:  1645charge 0 multiplicity 1
 C         0.304044         0.257104         0.421998
 C         1.203441        -0.208704        -0.632185
 O         2.280006        -1.066540        -0.138898
 C         2.652680         0.111133        -0.920104
 C         2.499327        -0.304048        -2.342207
 C         2.907708        -1.681230        -2.840709
 O         1.773909        -2.104054        -3.625867
 C         0.635713        -1.813542        -2.733677
 C         0.980018        -0.426407        -2.155998
 H        -0.640691         0.931013         0.128774
 H        -0.081558        -0.623986         0.933636
 H         0.880967         0.852391         1.108964
 H         3.277051         0.858297        -0.464611
 H         2.846830         0.569316        -2.990717
 H         3.864530        -1.810247        -3.428216
 H         2.887161        -2.206642        -1.840015
 H        -0.299136        -1.921286        -3.291734
 H         0.698770        -2.584659        -1.982078
 H         0.460366         0.337682        -2.746157
