19
Iteration:   308charge 0 multiplicity 1
 C         0.274917         0.185592         0.464470
 C         1.198344        -0.130944        -0.688023
 O         2.147673        -1.243347        -0.415925
 C         2.678845         0.008358        -0.992059
 C         2.456254        -0.197440        -2.442859
 C         3.008738        -1.523717        -2.860780
 O         1.823891        -2.288103        -3.189994
 C         0.685287        -1.688485        -2.641485
 C         0.970254        -0.305858        -2.171083
 H        -0.398433         1.087783         0.042119
 H        -0.312711        -0.587475         0.835739
 H         0.956343         0.716010         1.264253
 H         3.557136         0.574093        -0.402049
 H         2.702372         0.579716        -3.188662
 H         3.684704        -1.556681        -3.821210
 H         3.479950        -1.979243        -2.048704
 H        -0.061704        -1.599752        -3.494531
 H         0.217798        -2.438677        -2.023068
 H         0.307016         0.410380        -2.721045
