19
Iteration:  4415
 C         0.311893         0.289865         0.261621
 C         1.194604        -0.220691        -0.665635
 O         1.768590        -1.484453        -0.250432
 C         2.722934        -0.341611        -0.611202
 C         2.814090        -0.286750        -2.160641
 C         2.908043        -1.712071        -2.792974
 O         1.756667        -2.005501        -3.551406
 C         0.661308        -1.339359        -3.001764
 C         1.218979        -0.079685        -2.184674
 H         0.508979        -0.215405         1.309601
 H         0.396845         1.328042         0.435944
 H        -0.758449         0.017337         0.230458
 H         3.387694        -0.329994         0.156940
 H         3.398954         0.529783        -2.591394
 H         3.813173        -1.553678        -3.352626
 H         3.127296        -2.456958        -2.075901
 H        -0.026641        -1.144012        -3.818036
 H        -0.015371        -1.938667        -2.259831
 H         0.720795         0.761535        -2.586188
