19
Iteration:  2521charge 0 multiplicity 1
 C         0.201756         0.069963         0.351042
 C         1.267822        -0.185634        -0.629162
 O         2.263043        -1.144384        -0.292992
 C         2.793087         0.062103        -0.851750
 C         2.459744        -0.122797        -2.468055
 C         2.885620        -1.517194        -3.133097
 O         1.846443        -2.417179        -2.871757
 C         0.617607        -1.688848        -2.841772
 C         0.942447        -0.264106        -2.169163
 H        -0.191356         1.073670         0.166681
 H        -0.636703        -0.681700         0.156526
 H         0.517654         0.309506         1.406657
 H         3.325358         0.574675        -0.219609
 H         2.733372         0.683363        -3.171497
 H         2.880383        -1.290043        -4.247041
 H         3.850614        -1.956944        -2.874807
 H         0.332434        -1.435508        -3.901267
 H        -0.081291        -2.286681        -2.406999
 H         0.458645         0.622531        -2.581398
