19
Iteration:  2473
 C         0.358327         0.137710         0.492382
 C         1.170173        -0.208143        -0.706349
 O         2.325077        -1.186925        -0.414043
 C         2.602898         0.127026        -0.866774
 C         2.496197        -0.117822        -2.427433
 C         2.934468        -1.546947        -2.933536
 O         1.819576        -2.427345        -2.982319
 C         0.560772        -1.636430        -2.962167
 C         0.969297        -0.353971        -2.209754
 H        -0.513354         0.752920         0.277725
 H        -0.098913        -0.869254         0.888102
 H         0.856484         0.795260         1.125084
 H         3.265157         0.898930        -0.184167
 H         2.755555         0.713973        -3.063726
 H         3.647048        -1.586902        -3.736547
 H         3.397445        -1.870920        -2.008602
 H         0.206711        -1.321430        -3.896893
 H        -0.242058        -2.203697        -2.414379
 H         0.261856         0.569416        -2.512037
