19
Iteration:  1828charge 0 multiplicity 1
 C         0.312813         0.345104         0.423164
 C         1.250853        -0.250394        -0.580344
 O         2.240922        -1.164687        -0.057428
 C         2.625433         0.002927        -0.890062
 C         2.479022        -0.204806        -2.457655
 C         2.964644        -1.455889        -3.195867
 O         1.830244        -2.385947        -3.116320
 C         0.614337        -1.713299        -2.933846
 C         0.929201        -0.430558        -2.146088
 H        -0.263769         1.100729        -0.048304
 H        -0.467914        -0.527331         0.633538
 H         0.812137         0.758919         1.422062
 H         3.439637         0.548163        -0.411215
 H         2.752363         0.703102        -2.903224
 H         3.339788        -1.114260        -4.186004
 H         3.777774        -1.969870        -2.699360
 H         0.268377        -1.322221        -3.950557
 H        -0.156519        -2.360292        -2.474540
 H         0.197565         0.342222        -2.450692
