19
Iteration:  1125charge 0 multiplicity 1
 C         0.209202         0.180327         0.364738
 C         1.243380        -0.115354        -0.663271
 O         2.166512        -1.108760        -0.214848
 C         2.710593         0.069587        -0.935589
 C         2.609763        -0.205681        -2.404277
 C         2.966969        -1.623118        -2.955998
 O         1.724371        -2.248620        -3.461599
 C         0.651588        -1.734040        -2.557075
 C         0.979212        -0.365704        -2.139248
 H        -0.594721         0.652037        -0.064540
 H        -0.164190        -0.858775         0.799721
 H         0.573801         0.769903         1.116003
 H         3.596782         0.662170        -0.395690
 H         3.045291         0.513184        -3.085854
 H         3.609620        -1.607374        -3.786236
 H         3.326012        -2.268467        -2.114732
 H        -0.322444        -1.709557        -3.061780
 H         0.677542        -2.463037        -1.655941
 H         0.496887         0.438965        -2.678342
