19
Iteration:  1042charge 0 multiplicity 1
 C         0.378415         0.678698         0.475092
 C         1.150562        -0.179460        -0.566600
 O         2.123407        -1.128687        -0.055877
 C         2.631500        -0.080374        -0.876643
 C         2.396087        -0.302213        -2.380867
 C         3.011472        -1.415879        -3.122278
 O         1.855427        -2.120972        -3.683248
 C         0.706868        -2.098659        -2.629335
 C         0.939300        -0.654474        -2.081094
 H         0.225526         1.728443         0.091440
 H        -0.655561         0.318485         0.599902
 H         0.943572         0.736248         1.452620
 H         3.437732         0.592201        -0.425892
 H         2.606436         0.632902        -2.950597
 H         3.743839        -1.272028        -3.956599
 H         3.569282        -2.167176        -2.481683
 H        -0.298396        -2.235701        -3.019488
 H         0.876693        -2.884857        -1.881147
 H         0.264305         0.049498        -2.659796
