19
Iteration:  1116charge 0 multiplicity 1
 C         0.180199         0.242239         0.323460
 C         1.305711        -0.090918        -0.613146
 O         2.199764        -1.102421        -0.212047
 C         2.740756         0.065195        -0.886559
 C         2.570500        -0.261103        -2.363372
 C         2.973068        -1.626532        -2.965787
 O         1.749321        -2.210918        -3.561112
 C         0.577222        -1.831002        -2.525524
 C         1.000726        -0.347689        -2.143087
 H        -0.589145         0.675116        -0.246352
 H        -0.159437        -0.734355         0.958373
 H         0.492465         0.835385         1.146432
 H         3.444888         0.692717        -0.188633
 H         2.630068         0.547667        -3.092337
 H         3.712393        -1.466013        -3.734449
 H         3.302013        -2.387133        -2.268826
 H        -0.332880        -1.914190        -3.057755
 H         0.587287        -2.493712        -1.598113
 H         0.501502         0.339721        -2.701236
