19
Iteration:   326charge 0 multiplicity 1
 C         0.297403         0.247055         0.448753
 C         1.242411        -0.121691        -0.646368
 O         2.140259        -1.161232        -0.326639
 C         2.683432         0.085383        -0.877125
 C         2.564119        -0.108225        -2.457764
 C         2.970734        -1.559396        -2.921703
 O         1.818570        -2.366539        -3.308514
 C         0.601296        -1.793112        -2.677828
 C         0.927626        -0.319708        -2.231309
 H        -0.236736         1.151857         0.361277
 H        -0.285140        -0.756112         0.401527
 H         0.671045         0.079664         1.446122
 H         3.377019         0.453699        -0.276813
 H         2.889469         0.773050        -3.041583
 H         3.613211        -1.604298        -3.773296
 H         3.603938        -2.120520        -2.122253
 H        -0.235272        -2.035920        -3.389579
 H         0.367230        -2.383355        -1.758415
 H         0.398506         0.603035        -2.564451
