19
Iteration:  3306
 C         0.205451         0.307840         0.264173
 C         1.236347        -0.259248        -0.622326
 O         2.057121        -1.278101        -0.189654
 C         2.704149        -0.100378        -0.717244
 C         2.667862        -0.239553        -2.293393
 C         2.986409        -1.425084        -3.221998
 O         1.767135        -2.328717        -3.286097
 C         0.595503        -1.624204        -2.754087
 C         1.093686        -0.293240        -2.102358
 H         0.618061         0.758255         1.163741
 H        -0.319739         1.136128        -0.299072
 H        -0.429435        -0.468709         0.859180
 H         3.375071         0.272946         0.007675
 H         3.076652         0.653026        -2.736094
 H         3.206306        -0.970464        -4.232196
 H         3.840780        -2.071774        -2.933645
 H        -0.068469        -1.514634        -3.651438
 H         0.047235        -2.164528        -1.983165
 H         0.541284         0.550300        -2.443071
