19
Iteration:   446
 C         0.341053         0.575973         0.444350
 C         1.151369        -0.089584        -0.652645
 O         2.095573        -1.206915        -0.038490
 C         2.662437        -0.118238        -0.854259
 C         2.442177        -0.191296        -2.419836
 C         3.027241        -1.442252        -3.117756
 O         1.847805        -2.222620        -3.574007
 C         0.779907        -2.039436        -2.617849
 C         0.886557        -0.501794        -2.166157
 H        -0.027500         1.474789         0.085476
 H        -0.586455        -0.105629         0.908554
 H         0.999811         0.860435         1.285966
 H         3.370394         0.439739        -0.308548
 H         2.549031         0.820243        -2.909230
 H         3.523137        -1.209405        -4.054258
 H         3.714600        -2.031173        -2.405652
 H        -0.253926        -2.307468        -2.989107
 H         0.914259        -2.673983        -1.718211
 H         0.160848         0.157528        -2.724141
