19
Iteration:  4355charge 0 multiplicity 1
 C         0.262826         0.491702         0.207920
 C         1.275790        -0.259122        -0.613856
 O         1.788055        -1.450521        -0.016256
 C         2.664117        -0.514896        -0.530045
 C         2.776893        -0.393621        -2.120580
 C         2.950613        -1.650366        -2.913642
 O         1.715191        -1.729819        -3.806167
 C         0.708703        -1.473942        -2.883619
 C         1.214082        -0.316338        -2.180251
 H         0.765918         0.784286         1.055754
 H        -0.179461         1.381791        -0.388527
 H        -0.545184        -0.290117         0.324585
 H         3.286400         0.085358         0.238639
 H         3.235994         0.436972        -2.671755
 H         3.875725        -1.632742        -3.544742
 H         2.929959        -2.563731        -2.207383
 H        -0.142047        -1.417778        -3.612868
 H         0.561495        -2.315198        -2.271794
 H         0.861562         0.694144        -2.590379
