19
Iteration:  3142
 C         0.227467         0.214773         0.357844
 C         1.249061        -0.247061        -0.703502
 O         2.202511        -1.223799        -0.126976
 C         2.703937        -0.081315        -0.763810
 C         2.523413        -0.151843        -2.366565
 C         2.940792        -1.449020        -3.118601
 O         1.747665        -2.390741        -3.178281
 C         0.631801        -1.641994        -2.801550
 C         1.056078        -0.260343        -2.210086
 H        -0.605110        -0.388755         0.330200
 H         0.801003         0.394791         1.268448
 H        -0.173255         1.124712        -0.180676
 H         3.388115         0.513922        -0.241683
 H         2.801077         0.740453        -2.882836
 H         3.142922        -1.099804        -4.110961
 H         3.786328        -2.026307        -2.701610
 H        -0.084378        -1.572339        -3.796549
 H         0.057253        -2.161759        -2.033577
 H         0.644148         0.574859        -2.710039
