19
Iteration:  3909charge 0 multiplicity 1
 C         0.131060         0.226350         0.241264
 C         1.262305        -0.263568        -0.575062
 O         2.031393        -1.391182        -0.099462
 C         2.756008        -0.174057        -0.692013
 C         2.765037        -0.393055        -2.228207
 C         2.937945        -1.737775        -2.882008
 O         1.675491        -2.000965        -3.628537
 C         0.607512        -1.324476        -2.863188
 C         1.202767        -0.186603        -2.141150
 H        -0.742182        -0.167266        -0.191337
 H         0.282832        -0.169055         1.245093
 H         0.073167         1.379171         0.260218
 H         3.523258         0.327830         0.034813
 H         3.161599         0.445375        -2.836146
 H         3.720263        -1.653833        -3.706053
 H         3.131913        -2.552091        -2.245152
 H        -0.234845        -0.965605        -3.536137
 H        -0.027787        -2.007294        -2.229106
 H         0.798436         0.749146        -2.696941
