19
Iteration:  3755
 C         0.267720         0.593678         0.280453
 C         1.260913        -0.226595        -0.546957
 O         1.836927        -1.480492        -0.157898
 C         2.723584        -0.391664        -0.676512
 C         2.670595        -0.332362        -2.233046
 C         3.016279        -1.517091        -3.105378
 O         1.735637        -1.922074        -3.728670
 C         0.704278        -1.700069        -2.686472
 C         1.118354        -0.313006        -2.003426
 H         0.617604         1.503879         0.748768
 H        -0.482470         0.918240        -0.459491
 H        -0.286920         0.050986         1.090228
 H         3.480638        -0.139976         0.050664
 H         2.957673         0.691242        -2.547357
 H         3.686504        -1.248462        -3.970549
 H         3.488385        -2.351453        -2.559509
 H        -0.251181        -1.576816        -3.306919
 H         0.710197        -2.474805        -1.861934
 H         0.717563         0.583187        -2.581748
