19
Iteration:  4641charge 0 multiplicity 1
 C         0.167264         0.408372         0.196441
 C         1.240660        -0.302651        -0.580813
 O         1.888751        -1.494109        -0.258545
 C         2.715165        -0.424588        -0.560800
 C         2.842824        -0.309787        -2.082857
 C         2.966429        -1.559074        -2.999407
 O         1.706019        -2.130437        -3.382395
 C         0.613663        -1.282628        -3.045006
 C         1.195633        -0.192074        -2.128644
 H         0.018144        -0.032088         1.229644
 H         0.463685         1.448651         0.357915
 H        -0.826238         0.417094        -0.380247
 H         3.279797         0.000621         0.178790
 H         3.492155         0.403574        -2.417167
 H         3.519094        -1.173049        -3.872729
 H         3.514088        -2.493300        -2.721781
 H         0.345960        -0.729343        -3.873624
 H        -0.172163        -1.867397        -2.715915
 H         0.890339         0.827532        -2.343967
