19
Iteration:  3187charge 0 multiplicity 1
 C         0.211464         0.337288         0.457511
 C         1.264957        -0.216380        -0.581472
 O         2.110050        -1.334912        -0.358783
 C         2.714616        -0.192545        -0.846194
 C         2.524786        -0.141210        -2.365319
 C         2.920152        -1.375009        -3.173224
 O         1.895638        -2.458938        -2.944030
 C         0.667544        -1.565914        -2.861813
 C         0.972978        -0.241709        -2.238246
 H        -0.205451        -0.409233         0.988636
 H         0.674822         1.181342         0.996761
 H        -0.746940         0.627902        -0.163529
 H         3.489713         0.199735        -0.319961
 H         2.985101         0.755479        -2.767859
 H         2.972336        -1.315239        -4.231340
 H         3.871650        -1.756109        -2.675282
 H         0.378477        -1.391490        -4.040601
 H        -0.123832        -2.092227        -2.366993
 H         0.248987         0.508534        -2.488299
