19
Iteration:  1087charge 0 multiplicity 1
 C         0.204718         0.442917         0.296091
 C         1.237051        -0.228129        -0.540800
 O         2.271530        -1.119927        -0.025186
 C         2.666633        -0.004530        -0.927563
 C         2.564083        -0.261178        -2.382903
 C         2.919453        -1.580721        -3.021106
 O         1.735742        -2.087667        -3.670735
 C         0.714069        -1.929473        -2.573561
 C         0.976969        -0.512311        -2.071753
 H        -0.534778         1.145933        -0.270050
 H        -0.410025        -0.191308         0.845861
 H         0.817754         1.206891         0.953584
 H         3.262571         0.666887        -0.418297
 H         2.587589         0.695009        -2.964477
 H         3.805726        -1.509310        -3.745220
 H         3.276693        -2.393942        -2.338302
 H        -0.287731        -2.037341        -3.074678
 H         0.721654        -2.707683        -1.833388
 H         0.203064         0.206163        -2.596993
