19
Iteration:  1831
 C         0.306808         0.327521         0.438884
 C         1.272390        -0.251132        -0.596169
 O         2.231635        -1.173249        -0.040893
 C         2.658770         0.000945        -0.912954
 C         2.469606        -0.181201        -2.459780
 C         2.979956        -1.450815        -3.170236
 O         1.833110        -2.397360        -3.108356
 C         0.605212        -1.710005        -2.944171
 C         0.927003        -0.420934        -2.144144
 H        -0.339523         1.121093        -0.079752
 H        -0.372391        -0.489223         0.609174
 H         0.730779         0.740749         1.277537
 H         3.308844         0.560464        -0.402737
 H         2.767199         0.689223        -3.007003
 H         3.214562        -1.159241        -4.278135
 H         3.781602        -1.979790        -2.679246
 H         0.273873        -1.235848        -3.910702
 H        -0.255746        -2.344732        -2.510425
 H         0.174487         0.319786        -2.382068
