19
Iteration:   715
 C         0.471003         0.626783         0.331392
 C         1.127646        -0.294989        -0.607193
 O         2.029372        -1.254510        -0.157728
 C         2.594154        -0.194056        -0.853063
 C         2.438082        -0.185854        -2.353087
 C         2.931189        -1.268395        -3.276645
 O         1.967887        -2.346329        -3.252859
 C         0.771345        -1.865080        -2.644637
 C         0.905799        -0.499317        -2.137460
 H        -0.320454         1.255602        -0.257493
 H        -0.220402        -0.053441         0.962620
 H         1.122336         1.185435         0.991405
 H         3.348610         0.376264        -0.172944
 H         2.593915         0.862994        -2.561423
 H         3.068357        -0.842743        -4.283549
 H         3.890642        -1.728261        -3.016377
 H         0.010812        -2.089882        -3.422259
 H         0.459284        -2.496091        -1.792244
 H         0.169769         0.176279        -2.616501
