19
Iteration:  1003
 C         0.324082         0.499587         0.353213
 C         1.190775        -0.171869        -0.643703
 O         2.133430        -1.232869        -0.235356
 C         2.636656        -0.113188        -0.847827
 C         2.500517        -0.176171        -2.421173
 C         2.990905        -1.373732        -3.120489
 O         1.755392        -2.236123        -3.448995
 C         0.762211        -1.967995        -2.416978
 C         0.958358        -0.476652        -2.182029
 H         0.424044         1.584321         0.112363
 H        -0.702705         0.201293         0.381842
 H         0.687636         0.283584         1.395014
 H         3.253766         0.435113        -0.257281
 H         2.518686         0.803685        -2.921426
 H         3.463234        -1.044428        -4.056276
 H         3.668853        -1.898848        -2.465478
 H        -0.269966        -2.308875        -2.847664
 H         1.079661        -2.524325        -1.536436
 H         0.239933         0.202811        -2.746391
