19
Iteration:  4622
 C         0.273142         0.389974         0.289503
 C         1.193877        -0.280612        -0.632012
 O         1.789109        -1.593278        -0.211957
 C         2.639333        -0.354948        -0.594164
 C         2.685215        -0.342245        -2.202992
 C         3.061114        -1.582725        -3.028617
 O         1.752962        -2.171162        -3.327832
 C         0.680037        -1.206412        -3.058384
 C         1.229493        -0.105484        -2.162779
 H         0.090763        -0.100099         1.310424
 H         0.514925         1.337014         0.470374
 H        -0.733627         0.490073        -0.095631
 H         3.485697        -0.147081         0.104082
 H         3.209047         0.599966        -2.497165
 H         3.706403        -1.368110        -3.864552
 H         3.774791        -2.179865        -2.419272
 H         0.182217        -0.912886        -4.066488
 H        -0.041726        -1.742292        -2.439171
 H         0.927730         0.901524        -2.422791
