19
Iteration:  2989charge 0 multiplicity 1
 C         0.150792         0.502050         0.279282
 C         1.153491        -0.233301        -0.558572
 O         2.296588        -1.205852        -0.044749
 C         2.670624         0.065026        -0.766134
 C         2.595694        -0.301091        -2.339932
 C         2.968974        -1.573049        -3.109582
 O         1.671534        -2.040067        -3.698636
 C         0.787888        -1.943686        -2.577135
 C         0.991342        -0.524036        -2.094434
 H         0.179777         1.551312         0.042250
 H        -0.949745         0.276277         0.042836
 H         0.333058         0.330470         1.441201
 H         3.321721         0.747962        -0.010326
 H         2.554916         0.544020        -3.031130
 H         3.628150        -1.443093        -3.959674
 H         3.403786        -2.376547        -2.387800
 H        -0.155176        -2.215774        -3.076228
 H         1.038479        -2.663201        -1.811338
 H         0.282046         0.159656        -2.594782
