19
Iteration:  4967charge 0 multiplicity 1
 C         0.095525         0.330887         0.312083
 C         1.233073        -0.211199        -0.555550
 O         1.841997        -1.527114        -0.225176
 C         2.670079        -0.455030        -0.527809
 C         2.816192        -0.438246        -2.118695
 C         3.012409        -1.628635        -3.079550
 O         1.687363        -2.184516        -3.324451
 C         0.725501        -1.121369        -3.164123
 C         1.247773        -0.042764        -2.174279
 H         0.592725         0.868468         1.197242
 H        -0.322763         1.079995        -0.394040
 H        -0.712985        -0.368296         0.598419
 H         3.556570        -0.024232         0.074166
 H         3.296249         0.544330        -2.220006
 H         3.422917        -1.293428        -3.994202
 H         3.622449        -2.390136        -2.685394
 H         0.316658        -0.702938        -4.144545
 H        -0.074259        -1.598625        -2.521423
 H         1.163554         0.924629        -2.645679
