19
Iteration:  4174charge 0 multiplicity 1
 C         0.178308         0.267717         0.346912
 C         1.215600        -0.253622        -0.553113
 O         1.956049        -1.454452        -0.239595
 C         2.741422        -0.273820        -0.594173
 C         2.753527        -0.361944        -2.238848
 C         2.992674        -1.770774        -2.835784
 O         1.701844        -2.051724        -3.570583
 C         0.546955        -1.189839        -3.076255
 C         1.222909        -0.144013        -2.109625
 H         0.527608         0.416670         1.391609
 H        -0.294062         1.170394        -0.000757
 H        -0.732983        -0.407906         0.407173
 H         3.377583         0.182438         0.331977
 H         3.406772         0.379166        -2.769127
 H         3.810041        -1.727246        -3.613586
 H         3.225255        -2.603553        -2.061134
 H         0.322128        -0.687115        -4.031277
 H        -0.107893        -1.897668        -2.720214
 H         1.063761         0.859182        -2.478006
