19
Iteration:  1398charge 0 multiplicity 1
 C         0.213349         0.293094         0.368010
 C         1.253547        -0.146878        -0.660811
 O         2.295163        -1.049384        -0.157639
 C         2.716233         0.032441        -0.884384
 C         2.567061        -0.261159        -2.365877
 C         2.866207        -1.665078        -2.793809
 O         1.691161        -2.063826        -3.617451
 C         0.721332        -1.932141        -2.679847
 C         0.981192        -0.389832        -2.142338
 H        -0.506835         1.198704         0.080203
 H        -0.487909        -0.651437         0.396651
 H         0.505288         0.102437         1.351458
 H         3.512927         0.737972        -0.487117
 H         2.757656         0.449039        -3.036785
 H         3.714980        -1.603842        -3.482249
 H         2.864027        -2.407846        -1.970479
 H        -0.203688        -2.012019        -3.236049
 H         0.772536        -2.660605        -1.911359
 H         0.417733         0.384579        -2.634803
