19
Iteration:   604charge 0 multiplicity 1
 C         0.284952         0.102772         0.431405
 C         1.240761        -0.215272        -0.636849
 O         2.334284        -1.200572        -0.394884
 C         2.681173         0.093697        -0.973380
 C         2.431529        -0.089939        -2.461827
 C         2.953203        -1.524400        -2.977953
 O         1.794076        -2.390340        -2.783698
 C         0.603919        -1.683157        -2.943790
 C         0.892834        -0.261010        -2.199345
 H         0.294816         1.206943         0.285906
 H        -0.659254        -0.192386         0.331374
 H         0.545279        -0.264308         1.384134
 H         3.426868         0.615788        -0.455497
 H         2.688530         0.681343        -3.107758
 H         3.335961        -1.581347        -3.945212
 H         3.728270        -1.983902        -2.363707
 H         0.507003        -1.532763        -4.095903
 H        -0.330613        -2.189383        -2.681795
 H         0.302516         0.494110        -2.569006
