19
Iteration:  2076
 C         0.252645         0.401983         0.402852
 C         1.279785        -0.113687        -0.617922
 O         2.032108        -1.346683        -0.303584
 C         2.744991        -0.197875        -0.834065
 C         2.415643        -0.137896        -2.362454
 C         2.919676        -1.318046        -3.355843
 O         1.979493        -2.402492        -2.948743
 C         0.700888        -1.773197        -2.690547
 C         0.937213        -0.331293        -2.213019
 H        -0.374182         1.149124        -0.243931
 H        -0.275282        -0.385417         0.796688
 H         0.637332         1.141164         1.247376
 H         3.549336         0.205143        -0.337780
 H         2.705095         0.860371        -2.803143
 H         2.889601        -0.997626        -4.352305
 H         3.947210        -1.612940        -3.096036
 H         0.039729        -1.778887        -3.561346
 H         0.279012        -2.425618        -1.979331
 H         0.358882         0.332382        -2.798363
