19
Iteration:  3668
 C         0.251939         0.360705         0.430983
 C         1.257453        -0.293030        -0.587118
 O         2.136480        -1.362314        -0.250084
 C         2.695533        -0.130097        -0.774149
 C         2.597945        -0.225922        -2.263902
 C         2.870670        -1.764548        -2.783399
 O         1.788465        -2.061663        -3.628263
 C         0.615218        -1.484970        -2.904265
 C         1.079440        -0.248767        -2.148667
 H         0.260233        -0.333088         1.266092
 H         0.347797         1.466527         0.537649
 H        -0.818950         0.161658         0.036002
 H         3.400580         0.279380        -0.150467
 H         3.109953         0.564040        -2.837701
 H         3.829271        -1.780594        -3.372371
 H         2.981844        -2.443382        -1.851223
 H        -0.107046        -1.200574        -3.746944
 H         0.185009        -2.266565        -2.338893
 H         0.545129         0.651169        -2.365304
