19
Iteration:  3338charge 0 multiplicity 1
 C         0.239405         0.299920         0.454778
 C         1.247917        -0.132121        -0.604145
 O         2.020740        -1.293387        -0.204888
 C         2.713090        -0.235307        -0.784799
 C         2.557955        -0.186841        -2.378366
 C         3.013278        -1.429106        -3.077381
 O         1.817686        -2.358784        -3.340411
 C         0.643422        -1.619639        -2.807244
 C         1.052712        -0.215426        -2.189099
 H         0.599248         1.206211         0.996574
 H        -0.674440         0.596079        -0.139216
 H        -0.115294        -0.593900         0.958427
 H         3.462861         0.197482        -0.183396
 H         3.063682         0.661285        -2.776676
 H         3.515603        -1.378021        -4.027452
 H         3.620693        -2.024449        -2.440908
 H        -0.102905        -1.628938        -3.728089
 H         0.071733        -2.121240        -1.975559
 H         0.479377         0.611445        -2.554441
