19
Iteration:  2585
 C         0.307144         0.400061         0.442606
 C         1.190943        -0.155805        -0.637747
 O         2.040338        -1.284424        -0.305540
 C         2.658401        -0.116747        -0.929946
 C         2.448201        -0.110936        -2.452488
 C         2.944865        -1.300654        -3.190847
 O         1.989721        -2.430649        -3.062730
 C         0.708553        -1.832852        -2.652271
 C         0.991371        -0.371967        -2.144847
 H         0.046890         1.383543         0.277783
 H        -0.768571        -0.107472         0.430523
 H         0.824198         0.347832         1.424423
 H         3.363214         0.374282        -0.329817
 H         2.627192         0.803763        -2.957982
 H         2.948110        -0.989322        -4.226004
 H         3.878299        -1.749669        -2.949061
 H         0.094696        -1.761048        -3.555292
 H         0.193315        -2.539558        -1.984271
 H         0.272629         0.409114        -2.674721
