19
Iteration:  3731charge 0 multiplicity 1
 C         0.236523         0.528220         0.371851
 C         1.210113        -0.185228        -0.573136
 O         1.956553        -1.419674        -0.093388
 C         2.710159        -0.352450        -0.639131
 C         2.632721        -0.347177        -2.215561
 C         2.984931        -1.645632        -3.069747
 O         1.764196        -1.909848        -3.722390
 C         0.670204        -1.681429        -2.780645
 C         1.109177        -0.252672        -2.181640
 H         0.802030         1.115238         1.185788
 H        -0.428720         1.251609        -0.124788
 H        -0.355239        -0.152970         0.884949
 H         3.514667        -0.072015        -0.063700
 H         3.183637         0.515871        -2.544878
 H         3.637404        -1.327487        -3.868469
 H         3.409159        -2.499700        -2.600943
 H        -0.224146        -1.683913        -3.402235
 H         0.675211        -2.403437        -1.852580
 H         0.549106         0.640339        -2.744401
