19
Iteration:   538charge 0 multiplicity 1
 C         0.225224         0.120505         0.423842
 C         1.260898        -0.103448        -0.642349
 O         2.258222        -1.147945        -0.245484
 C         2.716464         0.022733        -0.914151
 C         2.533271        -0.147223        -2.474365
 C         2.904741        -1.507732        -3.076767
 O         1.763160        -2.414698        -3.006646
 C         0.630037        -1.678589        -2.827699
 C         0.995706        -0.336603        -2.199650
 H        -0.631046         0.803772        -0.063930
 H        -0.099492        -0.756703         0.837824
 H         0.527838         0.704976         1.333599
 H         3.451377         0.765868        -0.607424
 H         2.627622         0.759812        -3.027935
 H         3.423693        -1.424308        -4.119488
 H         3.602282        -2.066524        -2.399602
 H         0.032274        -1.507561        -3.771925
 H        -0.018388        -2.341960        -2.227192
 H         0.500605         0.500112        -2.606893
