19
Iteration:  3826
 C         0.416431         0.455111         0.426704
 C         1.214369        -0.155448        -0.577962
 O         1.834405        -1.416603        -0.199212
 C         2.635666        -0.357617        -0.672919
 C         2.646548        -0.279746        -2.186330
 C         2.966254        -1.596695        -2.941374
 O         1.808778        -1.991973        -3.702852
 C         0.620157        -1.666830        -2.945210
 C         1.131903        -0.251646        -2.137266
 H        -0.213366         1.357506         0.043632
 H        -0.309974        -0.277643         0.838036
 H         1.013041         0.787284         1.308404
 H         3.345342         0.166624        -0.055367
 H         3.132326         0.630814        -2.538100
 H         3.824821        -1.467369        -3.581319
 H         3.298417        -2.346580        -2.072708
 H        -0.202728        -1.416682        -3.547463
 H         0.474104        -2.372044        -2.181534
 H         0.708858         0.581518        -2.614499
