19
Iteration:  2329charge 0 multiplicity 1
 C         0.460080         0.521137         0.437668
 C         1.041979        -0.275214        -0.701603
 O         2.033167        -1.359487        -0.326523
 C         2.573551        -0.210660        -0.897146
 C         2.418546        -0.119019        -2.427637
 C         2.889226        -1.249907        -3.281297
 O         2.079512        -2.392558        -2.891014
 C         0.792720        -1.855330        -2.673010
 C         0.900748        -0.334946        -2.236403
 H         0.531091         1.664752         0.243427
 H        -0.615985         0.306475         0.558652
 H         1.053226         0.393975         1.371446
 H         3.318428         0.311923        -0.450151
 H         2.640339         0.920721        -2.683106
 H         2.724811        -0.847677        -4.337196
 H         3.943930        -1.545025        -3.185540
 H         0.083610        -2.050207        -3.562383
 H         0.323096        -2.437991        -1.807637
 H         0.223030         0.458900        -2.535853
