19
Iteration:  3976
 C         0.330434         0.469385         0.522949
 C         1.212237        -0.160355        -0.599728
 O         1.785251        -1.511123        -0.312575
 C         2.638905        -0.327480        -0.619895
 C         2.733344        -0.275996        -2.168806
 C         3.029269        -1.649850        -2.922321
 O         1.780379        -1.995305        -3.692538
 C         0.697323        -1.554095        -2.884135
 C         1.092870        -0.224497        -2.225992
 H        -0.020769        -0.210039         1.168922
 H         0.992830         1.147524         1.099513
 H        -0.556884         1.078803         0.153964
 H         3.321373        -0.005520         0.102175
 H         3.348982         0.515780        -2.535802
 H         3.796189        -1.548270        -3.690023
 H         3.319230        -2.356158        -2.201953
 H        -0.165906        -1.294330        -3.537912
 H         0.302662        -2.351862        -2.232441
 H         0.736178         0.671867        -2.717326
