19
Iteration:   968charge 0 multiplicity 1
 C         0.202768         0.270253         0.376455
 C         1.274652        -0.126219        -0.595326
 O         2.212743        -1.155979        -0.229097
 C         2.737487        -0.053529        -0.923917
 C         2.516222        -0.175487        -2.461389
 C         2.980378        -1.420190        -3.087542
 O         1.776480        -2.398305        -3.329417
 C         0.643552        -1.776617        -2.562731
 C         0.949812        -0.374406        -2.102738
 H        -0.264370         1.252689        -0.021595
 H        -0.544944        -0.399800         0.223512
 H         0.489669         0.520676         1.451047
 H         3.453628         0.498064        -0.391846
 H         2.731843         0.730555        -3.075626
 H         3.352351        -1.290321        -4.151921
 H         3.789073        -1.925673        -2.564174
 H        -0.301048        -2.027123        -3.285691
 H         0.378355        -2.335236        -1.640304
 H         0.383568         0.588882        -2.550734
