19
Iteration:  2603
 C         0.346694         0.504617         0.536074
 C         1.147731        -0.138356        -0.630668
 O         2.013953        -1.270226        -0.320427
 C         2.603850        -0.096644        -0.857715
 C         2.466017        -0.180313        -2.371088
 C         3.000510        -1.395110        -3.320181
 O         2.040624        -2.342760        -3.099040
 C         0.747556        -1.854792        -2.733196
 C         0.817060        -0.449702        -2.170999
 H        -0.031591         1.517010         0.169310
 H        -0.446619        -0.129797         0.866335
 H         1.010818         0.431129         1.349835
 H         3.546838         0.251102        -0.158684
 H         2.704832         0.825636        -2.755399
 H         3.198884        -1.103443        -4.409457
 H         3.968901        -1.707057        -2.869299
 H        -0.056859        -1.832175        -3.552708
 H         0.360714        -2.539830        -1.843299
 H         0.265529         0.285006        -2.740100
