19
Iteration:  2046
 C         0.322645         0.456850         0.391312
 C         1.192515        -0.214004        -0.663280
 O         1.918161        -1.371115        -0.345773
 C         2.687240        -0.159025        -0.869382
 C         2.445678        -0.123171        -2.417516
 C         2.982114        -1.311686        -3.309737
 O         2.000410        -2.354192        -3.001761
 C         0.749489        -1.765276        -2.567621
 C         0.948910        -0.366955        -2.190551
 H        -0.215318         1.278747         0.106342
 H        -0.329330        -0.280193         0.941197
 H         1.082773         0.898797         1.121949
 H         3.439438         0.199112        -0.282662
 H         2.737573         0.833512        -2.831123
 H         3.036999        -1.009474        -4.433446
 H         3.938843        -1.654032        -2.925404
 H        -0.100529        -1.863744        -3.326511
 H         0.459447        -2.392832        -1.780921
 H         0.257054         0.256874        -2.733310
