19
Iteration:  1504
 C         0.395424         0.508301         0.426167
 C         1.143059        -0.188917        -0.632453
 O         2.047417        -1.355573        -0.316220
 C         2.597136        -0.214934        -0.849719
 C         2.482890        -0.146351        -2.395777
 C         2.941939        -1.283092        -3.264865
 O         2.019672        -2.433414        -2.906120
 C         0.695371        -1.801598        -2.857381
 C         0.911903        -0.350177        -2.182682
 H         0.149941         1.631356         0.242885
 H        -0.480474        -0.004692         0.649921
 H         1.071137         0.568735         1.253732
 H         3.336118         0.464042        -0.234855
 H         2.677603         1.055265        -2.582804
 H         2.715527        -1.081204        -4.351910
 H         4.015563        -1.635186        -3.194904
 H         0.042759        -1.667836        -3.732855
 H         0.217274        -2.477566        -2.074172
 H         0.120958         0.347240        -2.557866
