19
Iteration:  1996charge 0 multiplicity 1
 C         0.328638         0.437812         0.443972
 C         1.203195        -0.192364        -0.495178
 O         2.142977        -1.231041        -0.199445
 C         2.621477        -0.068960        -0.899178
 C         2.411553        -0.164683        -2.420984
 C         2.958914        -1.396098        -3.277800
 O         1.965529        -2.417987        -3.110912
 C         0.677284        -1.804422        -2.853894
 C         0.937546        -0.438975        -2.061021
 H         0.156842         1.664750         0.117283
 H        -0.746833         0.144451         0.112778
 H         0.518759         0.459504         1.482475
 H         3.446095         0.399829        -0.189965
 H         2.524215         0.774635        -3.092053
 H         3.121241        -1.072880        -4.293850
 H         3.880987        -1.849291        -2.858454
 H         0.271329        -1.525021        -3.811903
 H        -0.002273        -2.650204        -2.407796
 H         0.385539         0.431178        -2.539551
