19
Iteration:  2550
 C         0.163654         0.239054         0.250034
 C         1.226727        -0.248110        -0.683990
 O         2.293328        -1.254366        -0.282075
 C         2.693636        -0.098342        -0.916388
 C         2.519151        -0.108592        -2.462893
 C         2.894143        -1.374999        -3.207452
 O         1.899214        -2.330725        -2.862846
 C         0.591175        -1.713160        -2.664405
 C         0.995031        -0.375763        -2.130361
 H         0.026143         1.304154         0.099820
 H        -0.813761        -0.374685         0.095292
 H         0.427500         0.114722         1.256331
 H         3.279669         0.655626        -0.178484
 H         2.680370         0.805982        -2.977583
 H         2.847588        -1.083265        -4.266065
 H         3.863703        -1.798316        -3.014319
 H         0.072196        -1.491452        -3.616680
 H        -0.034615        -2.351202        -1.914640
 H         0.529612         0.602758        -2.595387
