19
Iteration:  3809
 C         0.314446         0.561332         0.482635
 C         1.198900        -0.222698        -0.568164
 O         1.797350        -1.439290        -0.182038
 C         2.720343        -0.294528        -0.622563
 C         2.655006        -0.349741        -2.233436
 C         3.031924        -1.584305        -3.072353
 O         1.826861        -2.008946        -3.718263
 C         0.713833        -1.580602        -2.840243
 C         1.033107        -0.322481        -2.133273
 H         0.314167         1.638122         0.212951
 H        -0.677622         0.104395         0.580780
 H         0.854359         0.652138         1.417893
 H         3.519269        -0.231274         0.138111
 H         3.048171         0.596198        -2.643020
 H         3.752356        -1.454854        -3.906010
 H         3.385516        -2.351588        -2.455191
 H        -0.172004        -1.477104        -3.574330
 H         0.510683        -2.458737        -2.098181
 H         0.405382         0.542521        -2.661476
