19
Iteration:  3911charge 0 multiplicity 1
 C         0.115804         0.236294         0.236068
 C         1.251776        -0.266321        -0.571069
 O         2.035121        -1.391771        -0.117600
 C         2.774674        -0.167244        -0.675505
 C         2.754709        -0.377668        -2.216304
 C         2.952125        -1.742474        -2.885748
 O         1.654548        -2.004040        -3.628242
 C         0.612048        -1.325344        -2.873135
 C         1.218370        -0.191234        -2.144026
 H        -0.725271        -0.206656        -0.096100
 H         0.298599        -0.100650         1.252121
 H         0.087832         1.358880         0.258313
 H         3.490312         0.285688         0.022176
 H         3.105506         0.475866        -2.779155
 H         3.673298        -1.729410        -3.704354
 H         3.134137        -2.511280        -2.258135
 H        -0.208093        -0.957894        -3.559358
 H         0.036801        -2.052099        -2.223079
 H         0.865738         0.653416        -2.656791
