19
Iteration:   418
 C         0.343822         0.570350         0.399985
 C         1.147979        -0.268841        -0.571548
 O         2.147203        -1.116294        -0.085009
 C         2.601200         0.078991        -0.866363
 C         2.432480        -0.264631        -2.330620
 C         2.984746        -1.607637        -3.066497
 O         1.806622        -2.054105        -3.693503
 C         0.799147        -2.041513        -2.567639
 C         0.953512        -0.610855        -2.116724
 H         0.514017         1.658251        -0.077399
 H        -0.616275         0.400949         0.395165
 H         0.531061         0.538759         1.505166
 H         3.311356         0.660257        -0.128035
 H         2.422717         0.521283        -3.086223
 H         3.646680        -1.221634        -3.943400
 H         3.641317        -2.261557        -2.566171
 H        -0.244528        -2.156886        -2.900685
 H         1.051352        -2.783289        -1.809620
 H         0.272595        -0.022639        -2.737468
