19
Iteration:   641
 C         0.247971         0.136161         0.383673
 C         1.238696        -0.168428        -0.695147
 O         2.215035        -1.167544        -0.276114
 C         2.672369        -0.008164        -0.879413
 C         2.501822        -0.137479        -2.465823
 C         2.956717        -1.505307        -3.148470
 O         1.824177        -2.379857        -2.955285
 C         0.618565        -1.732632        -2.681318
 C         0.987914        -0.264442        -2.274494
 H         0.026194         1.301141         0.280202
 H        -0.747134        -0.346111         0.117102
 H         0.596053        -0.031212         1.439438
 H         3.477905         0.592524        -0.316160
 H         2.896482         0.945415        -2.809140
 H         3.033767        -1.268328        -4.288069
 H         3.868738        -1.975543        -2.755037
 H        -0.081047        -1.729432        -3.578969
 H         0.156464        -2.382498        -1.848081
 H         0.410221         0.684623        -2.629268
