19
Iteration:  4689
 C         0.175709         0.289083         0.307857
 C         1.220353        -0.198925        -0.650866
 O         1.755398        -1.498635        -0.295915
 C         2.674028        -0.396991        -0.578834
 C         2.843878        -0.352739        -2.131397
 C         2.997209        -1.585230        -3.010667
 O         1.715514        -2.117521        -3.319223
 C         0.670609        -1.224780        -3.010146
 C         1.276837        -0.115569        -2.205759
 H         0.660069         0.234851         1.295170
 H        -0.124282         1.286785         0.057468
 H        -0.694632        -0.363394         0.233913
 H         3.620967        -0.319030         0.121314
 H         3.379305         0.552079        -2.616772
 H         3.605953        -1.660441        -3.932552
 H         3.538864        -2.381600        -2.437941
 H         0.159500        -0.775201        -3.885856
 H        -0.061347        -1.761678        -2.379885
 H         1.012508         0.935867        -2.485386
