19
Iteration:  4977charge 0 multiplicity 1
 C         0.168645         0.311079         0.284082
 C         1.188104        -0.236110        -0.649050
 O         1.798373        -1.495402        -0.277714
 C         2.698152        -0.434765        -0.554703
 C         2.808205        -0.395598        -2.065562
 C         3.040715        -1.584945        -3.014747
 O         1.675431        -2.205028        -3.281003
 C         0.659771        -1.135278        -3.097303
 C         1.312481        -0.056946        -2.214390
 H         0.523995         0.605349         1.282633
 H        -0.483927         1.201264        -0.024809
 H        -0.486547        -0.524192         0.543634
 H         3.429924        -0.246362         0.236496
 H         3.606751         0.324871        -2.443054
 H         3.431992        -1.182508        -3.963134
 H         3.702396        -2.420878        -2.788127
 H         0.297229        -0.682964        -4.138335
 H        -0.294173        -1.571378        -2.713859
 H         1.115404         0.956111        -2.537920
