19
Iteration:  3833
 C         0.374217         0.421273         0.446732
 C         1.201406        -0.160772        -0.652620
 O         1.892284        -1.443227        -0.182352
 C         2.626227        -0.329280        -0.678269
 C         2.622465        -0.346172        -2.221943
 C         2.953386        -1.596989        -2.859500
 O         1.834811        -1.954340        -3.680339
 C         0.598379        -1.597429        -2.905468
 C         1.141074        -0.238129        -2.202431
 H        -0.186796         1.190414         0.086196
 H        -0.210245        -0.346817         0.943155
 H         1.092698         1.004891         1.138858
 H         3.482950         0.098282         0.025387
 H         3.244032         0.527392        -2.547461
 H         3.822894        -1.502923        -3.583660
 H         3.191547        -2.328078        -2.137041
 H        -0.346948        -1.381312        -3.602367
 H         0.411047        -2.404430        -2.132489
 H         0.598210         0.547253        -2.750065
