19
Iteration:  3416
 C         0.231903         0.353997         0.410355
 C         1.207701        -0.134996        -0.647167
 O         2.084716        -1.279317        -0.138028
 C         2.711636        -0.134284        -0.817189
 C         2.636178        -0.278911        -2.317726
 C         3.036135        -1.597313        -2.945959
 O         1.794156        -2.125937        -3.586752
 C         0.556546        -1.647297        -2.752190
 C         1.008687        -0.358649        -2.135774
 H         0.245689         1.419417         0.530534
 H        -0.817952        -0.016846         0.125343
 H         0.578067        -0.237301         1.388931
 H         3.529019         0.253384        -0.100424
 H         2.922542         0.625356        -2.877866
 H         3.705375        -1.430956        -3.791062
 H         3.387357        -2.323564        -2.253399
 H        -0.238044        -1.407307        -3.591290
 H         0.356916        -2.430711        -1.955997
 H         0.550841         0.478853        -2.648624
