19
Iteration:  2961charge 0 multiplicity 1
 C         0.277022         0.515119         0.275577
 C         1.267259        -0.194235        -0.542360
 O         2.114848        -1.178573        -0.062954
 C         2.726905        -0.069033        -0.886281
 C         2.433716        -0.246410        -2.372222
 C         2.949644        -1.474155        -3.064277
 O         1.818071        -2.077251        -3.661358
 C         0.785438        -1.971525        -2.573211
 C         0.909262        -0.543913        -2.024418
 H         0.248717         1.613273         0.320805
 H        -0.676002         0.333144        -0.138930
 H         0.342898         0.131407         1.280711
 H         3.467574         0.368478        -0.392194
 H         2.423911         0.726060        -2.886619
 H         3.710651        -1.343576        -3.848823
 H         3.338592        -2.137112        -2.293993
 H        -0.076204        -2.195738        -3.163526
 H         0.950526        -2.812899        -1.812647
 H         0.102415         0.100074        -2.466014
