19
Iteration:  1746charge 0 multiplicity 1
 C         0.270068         0.404272         0.393384
 C         1.218260        -0.142204        -0.659473
 O         2.045458        -1.311929        -0.332923
 C         2.712921        -0.053070        -0.818470
 C         2.502013        -0.131211        -2.413574
 C         2.955288        -1.460455        -3.189291
 O         1.822328        -2.258669        -3.317865
 C         0.754947        -1.888897        -2.496162
 C         1.000417        -0.360378        -2.146140
 H         0.016105         1.575231         0.155829
 H        -0.678157        -0.072190         0.383455
 H         0.574663         0.322058         1.402703
 H         3.425822         0.376535        -0.130179
 H         2.628164         0.975679        -2.772229
 H         3.405961        -1.233929        -4.154253
 H         3.662741        -1.999806        -2.466025
 H        -0.077732        -2.210897        -3.050812
 H         0.778378        -2.507470        -1.610528
 H         0.360420         0.357450        -2.627849
