19
Iteration:  2099
 C         0.304821         0.294809         0.349505
 C         1.184051        -0.274124        -0.707915
 O         2.131914        -1.265956        -0.134653
 C         2.631818        -0.070348        -0.872878
 C         2.576727        -0.133264        -2.386295
 C         2.883131        -1.377032        -3.300395
 O         1.900907        -2.367517        -2.958323
 C         0.653942        -1.742377        -2.775405
 C         0.997503        -0.341901        -2.155286
 H        -0.155866         1.171394        -0.180292
 H        -0.411440        -0.339170         0.758484
 H         0.834513         0.967498         1.156562
 H         3.285852         0.534806        -0.447927
 H         2.857626         0.787032        -2.923252
 H         2.732122        -1.018295        -4.264045
 H         3.887764        -1.779787        -3.226430
 H         0.082981        -1.565912        -3.691570
 H         0.165005        -2.452304        -2.237606
 H         0.365944         0.421957        -2.484388
