19
Iteration:  1967charge 0 multiplicity 1
 C         0.265090         0.306009         0.306351
 C         1.191130        -0.272124        -0.649512
 O         2.330095        -1.156730        -0.145124
 C         2.698220        -0.044937        -0.849802
 C         2.420438        -0.177085        -2.384145
 C         2.910841        -1.380891        -3.143117
 O         1.856523        -2.399597        -3.023568
 C         0.595026        -1.719138        -2.881715
 C         0.961708        -0.432813        -2.163104
 H         0.320807         1.381584         0.212512
 H        -0.739114         0.106508         0.158207
 H         0.498641         0.035170         1.395592
 H         3.433997         0.610997        -0.239309
 H         2.530933         0.817716        -2.965615
 H         3.142270        -1.195454        -4.255212
 H         3.786721        -1.985662        -2.774104
 H         0.171205        -1.376516        -3.903808
 H        -0.081750        -2.355006        -2.336534
 H         0.398072         0.377763        -2.626818
