19
Iteration:   756
 C         0.385678         0.613564         0.484249
 C         1.173270        -0.165288        -0.597104
 O         1.989215        -1.245986        -0.202054
 C         2.642026        -0.207101        -0.891955
 C         2.404826        -0.218185        -2.380362
 C         2.951450        -1.267548        -3.296369
 O         2.009450        -2.353893        -3.216585
 C         0.790480        -1.919582        -2.682979
 C         0.864930        -0.518154        -2.184448
 H         0.199857         1.588605         0.134576
 H        -0.635326         0.168172         0.899857
 H         1.033504         0.847855         1.246320
 H         3.457292         0.375194        -0.408687
 H         2.636270         0.711198        -2.766646
 H         3.064513        -1.046238        -4.426900
 H         3.877107        -1.653673        -2.811484
 H        -0.028164        -1.946802        -3.372590
 H         0.609936        -2.591573        -1.892239
 H         0.202042         0.194719        -2.544576
