19
Iteration:  3899charge 0 multiplicity 1
 C         0.182320         0.191216         0.258232
 C         1.304136        -0.205551        -0.627238
 O         2.029537        -1.355189        -0.064956
 C         2.710812        -0.245753        -0.704001
 C         2.752813        -0.380977        -2.254307
 C         2.892614        -1.754486        -2.900502
 O         1.738185        -1.966913        -3.598019
 C         0.544021        -1.364304        -2.879409
 C         1.142223        -0.173239        -2.152649
 H        -0.637698         0.013665        -0.281475
 H         0.054028        -0.318437         1.198273
 H         0.076668         1.332290         0.406169
 H         3.524768         0.329197        -0.119212
 H         3.474274         0.270109        -2.774379
 H         3.781178        -1.656056        -3.572018
 H         3.123594        -2.472988        -2.225218
 H        -0.070208        -1.070108        -3.792414
 H         0.136704        -2.100401        -2.115187
 H         0.850759         0.899474        -2.233328
