19
Iteration:    74
 C         0.235316         0.449260         0.307118
 C         1.268696        -0.289228        -0.539971
 O         2.328060        -1.121978        -0.108443
 C         2.680319         0.035752        -0.899619
 C         2.394770        -0.261749        -2.407217
 C         2.918098        -1.524367        -3.031441
 O         1.793341        -2.260921        -3.425829
 C         0.685189        -1.819609        -2.755391
 C         0.969723        -0.458310        -2.076774
 H         0.243963         1.447833         0.632314
 H        -0.743370         0.207547        -0.362310
 H         0.074462        -0.140106         1.189460
 H         3.208896         0.761413        -0.499606
 H         2.711987         0.607719        -2.991654
 H         3.726487        -1.475096        -3.795420
 H         3.527291        -2.000738        -2.224652
 H        -0.141100        -1.871668        -3.398045
 H         0.326237        -2.554649        -1.977449
 H         0.255450         0.436869        -2.415352
