19
Iteration:  2883
 C         0.260828         0.314433         0.368886
 C         1.293302        -0.132941        -0.694896
 O         2.114203        -1.241333        -0.333686
 C         2.698327        -0.096929        -0.917851
 C         2.472154        -0.174188        -2.393301
 C         3.001963        -1.393118        -2.997272
 O         1.847616        -2.310966        -3.221902
 C         0.654041        -1.771581        -2.668705
 C         0.919084        -0.376976        -2.117336
 H        -0.270330         1.163232        -0.009964
 H        -0.408908        -0.482600         0.736417
 H         0.792538         0.710980         1.342065
 H         3.559052         0.314225        -0.365912
 H         2.729177         0.778349        -2.928171
 H         3.405474        -1.311765        -4.010965
 H         3.746068        -1.926417        -2.357176
 H        -0.093545        -1.892828        -3.396412
 H         0.378567        -2.446788        -1.786970
 H         0.126643         0.378144        -2.522545
