19
Iteration:  3923
 C         0.100861         0.273095         0.287658
 C         1.258435        -0.230672        -0.609630
 O         2.059768        -1.362675        -0.237302
 C         2.764375        -0.232248        -0.575599
 C         2.764785        -0.292034        -2.170082
 C         2.930998        -1.744715        -2.941624
 O         1.638526        -2.009251        -3.608606
 C         0.597149        -1.403131        -2.927325
 C         1.233355        -0.241444        -2.116081
 H        -0.823225        -0.208200         0.151591
 H         0.344494         0.268422         1.344687
 H        -0.146806         1.302197        -0.030214
 H         3.515165         0.125839         0.042320
 H         3.295766         0.513331        -2.638571
 H         3.694172        -1.851833        -3.665904
 H         3.076074        -2.405441        -2.151288
 H        -0.144878        -1.086098        -3.693875
 H         0.165371        -2.110164        -2.157955
 H         0.997914         0.731423        -2.274714
