19
Iteration:  4543charge 0 multiplicity 1
 C         0.330403         0.422909         0.302963
 C         1.240478        -0.243800        -0.633915
 O         1.655388        -1.576578        -0.353507
 C         2.651827        -0.643284        -0.621262
 C         2.769545        -0.310278        -2.134382
 C         3.011862        -1.444062        -3.129837
 O         1.793775        -2.134097        -3.051332
 C         0.660577        -1.284639        -3.079663
 C         1.215605        -0.064385        -2.181654
 H         0.699313         0.824004         1.255470
 H        -0.072048         1.225355        -0.179905
 H        -0.598667        -0.203347         0.442484
 H         3.425485        -0.487756         0.094404
 H         3.246914         0.594455        -2.313541
 H         3.214957        -1.042220        -4.113998
 H         3.840060        -2.049102        -2.688424
 H         0.474420        -0.902555        -4.225472
 H        -0.130071        -1.863130        -2.684616
 H         1.083505         0.943017        -2.596453
