19
Iteration:  2612
 C         0.444107         0.484335         0.506118
 C         1.125001        -0.203803        -0.602877
 O         1.978908        -1.287363        -0.222575
 C         2.570909        -0.117115        -0.903537
 C         2.474478        -0.113319        -2.394240
 C         3.006467        -1.331648        -3.241913
 O         2.050267        -2.387659        -3.146548
 C         0.702812        -1.852823        -2.730911
 C         0.840608        -0.413131        -2.218333
 H        -0.117835         1.521883         0.240635
 H        -0.395546        -0.074434         0.767660
 H         1.148114         0.860372         1.320103
 H         3.369024         0.351622        -0.182701
 H         2.695992         0.927571        -2.842043
 H         3.042392        -0.998821        -4.315454
 H         3.928715        -1.952329        -3.011092
 H         0.086181        -2.096856        -3.582247
 H         0.468634        -2.592005        -1.959750
 H         0.282358         0.287047        -2.725823
