19
Iteration:  2277
 C         0.324195         0.514101         0.426679
 C         1.197068        -0.211172        -0.595659
 O         2.128622        -1.278023        -0.178466
 C         2.669955        -0.080723        -0.830979
 C         2.416974        -0.217132        -2.400683
 C         2.920883        -1.355694        -3.292269
 O         1.985971        -2.412534        -3.101990
 C         0.688337        -1.812979        -2.769495
 C         0.882649        -0.421248        -2.190697
 H        -0.302339         1.157288        -0.083535
 H        -0.437952        -0.221867         0.933503
 H         0.873957         0.984406         1.200381
 H         3.558976         0.656963        -0.277885
 H         2.705629         0.740648        -2.807116
 H         3.031119        -0.874714        -4.250568
 H         3.881091        -1.703622        -2.901224
 H         0.117035        -1.653481        -3.703544
 H         0.229147        -2.550398        -2.259706
 H         0.261952         0.390405        -2.745209
