19
Iteration:  2025
 C         0.433550         0.469628         0.384594
 C         1.146845        -0.224928        -0.674567
 O         2.037756        -1.301267        -0.229522
 C         2.567341        -0.166452        -0.857988
 C         2.510026        -0.104580        -2.374823
 C         2.916618        -1.311525        -3.219791
 O         1.984878        -2.357154        -3.066556
 C         0.685024        -1.877107        -2.691284
 C         0.923582        -0.356322        -2.245032
 H         0.147545         1.387395         0.132161
 H        -0.422748        -0.215918         0.658450
 H         1.081420         0.577028         1.256979
 H         3.182838         0.392876        -0.243925
 H         2.908555         0.733560        -2.835758
 H         2.940405        -0.813899        -4.249595
 H         3.900171        -1.687189        -2.971616
 H        -0.020868        -2.093185        -3.548918
 H         0.336569        -2.498833        -1.876506
 H         0.336269         0.472088        -2.660891
