19
Iteration:  4820charge 0 multiplicity 1
 C         0.195557         0.392780         0.186486
 C         1.255690        -0.214106        -0.598691
 O         1.772524        -1.552244        -0.313752
 C         2.732478        -0.568442        -0.580993
 C         2.787813        -0.303898        -2.091893
 C         3.018382        -1.469110        -3.078107
 O         1.741726        -2.188267        -3.262463
 C         0.631735        -1.263681        -3.005558
 C         1.239728        -0.111247        -2.137409
 H         0.043181        -0.070729         1.206359
 H         0.361218         1.525403         0.370712
 H        -0.790194         0.268117        -0.345575
 H         3.420184        -0.337907         0.309804
 H         3.383674         0.611042        -2.380308
 H         3.271218        -1.203696        -4.057056
 H         3.702141        -2.151665        -2.523983
 H         0.223133        -0.725979        -3.918079
 H        -0.222283        -1.663119        -2.482432
 H         0.983810         0.905316        -2.513787
