19
Iteration:  4992charge 0 multiplicity 1
 C         0.218250         0.235060         0.292931
 C         1.255742        -0.201391        -0.705075
 O         1.672185        -1.516098        -0.335495
 C         2.654625        -0.451489        -0.585039
 C         2.921109        -0.309836        -2.165915
 C         2.920448        -1.595209        -2.985313
 O         1.699380        -2.134911        -3.167472
 C         0.723210        -1.169096        -3.085897
 C         1.300276        -0.090127        -2.186879
 H         0.856388         0.373715         1.257095
 H        -0.171077         1.135183        -0.012838
 H        -0.622990        -0.525217         0.363012
 H         3.389688        -0.102065         0.268366
 H         3.358882         0.606384        -2.369266
 H         3.387160        -1.412306        -3.935494
 H         3.537576        -2.315197        -2.498698
 H         0.496861        -0.770170        -4.041689
 H        -0.171071        -1.661351        -2.621862
 H         1.003325         0.936040        -2.535056
