19
Iteration:  4048
 C         0.241894         0.650699         0.242174
 C         1.205277        -0.256669        -0.519907
 O         1.843751        -1.538642        -0.184784
 C         2.678760        -0.505939        -0.544990
 C         2.709604        -0.420889        -2.018250
 C         3.040497        -1.609396        -3.110638
 O         1.714566        -1.806666        -3.781629
 C         0.742339        -1.558408        -2.816565
 C         1.149125        -0.277404        -2.092795
 H         0.135312         0.466473         1.440035
 H         0.541022         1.742267         0.142077
 H        -0.739955         0.775721        -0.262232
 H         3.549414        -0.177526         0.058802
 H         3.179886         0.534172        -2.396269
 H         3.846845        -1.222043        -3.802011
 H         3.491198        -2.499818        -2.550906
 H        -0.222465        -1.585926        -3.317675
 H         0.493509        -2.495125        -2.233191
 H         0.520599         0.592072        -2.524210
