19
Iteration:  3017charge 0 multiplicity 1
 C         0.218373         0.341471         0.349192
 C         1.219699        -0.151621        -0.642233
 O         2.159256        -1.095770        -0.012877
 C         2.728107        -0.017882        -0.837480
 C         2.555330        -0.321951        -2.324619
 C         2.955647        -1.545812        -3.051909
 O         1.720606        -2.107952        -3.616875
 C         0.727569        -1.884339        -2.650117
 C         0.999835        -0.474599        -2.135966
 H        -0.191045         1.329350        -0.062903
 H        -0.558961        -0.418523         0.488640
 H         0.666776         0.469783         1.264719
 H         3.420765         0.665539        -0.353790
 H         2.714800         0.581305        -2.938458
 H         3.594030        -1.271452        -3.930554
 H         3.494630        -2.220861        -2.412390
 H        -0.256109        -1.934482        -3.235932
 H         0.760078        -2.674572        -1.806491
 H         0.371177         0.271033        -2.652687
