19
Iteration:  1272
 C         0.303327         0.361113         0.299573
 C         1.235426        -0.188309        -0.645252
 O         2.022419        -1.349980        -0.362398
 C         2.701827        -0.140633        -0.892196
 C         2.533192        -0.105843        -2.427480
 C         3.011880        -1.321906        -3.229662
 O         1.902977        -2.398140        -3.001754
 C         0.634854        -1.752706        -2.550955
 C         0.952411        -0.292815        -2.150068
 H        -0.260335         1.297767        -0.007758
 H        -0.444516        -0.371905         0.362337
 H         0.809364         0.522929         1.375676
 H         3.444587         0.210835        -0.338775
 H         2.725987         1.026884        -2.587041
 H         3.011859        -1.159254        -4.318462
 H         3.948096        -1.784716        -3.050546
 H        -0.168239        -1.710200        -3.296413
 H         0.233935        -2.383293        -1.687983
 H         0.369679         0.477376        -2.697392
