19
Iteration:  3462charge 0 multiplicity 1
 C         0.172256         0.393158         0.232101
 C         1.258535        -0.215655        -0.588634
 O         2.047375        -1.281754        -0.018213
 C         2.786667        -0.187062        -0.742909
 C         2.580672        -0.295242        -2.305109
 C         2.972634        -1.632799        -3.041694
 O         1.692967        -1.921799        -3.714970
 C         0.678225        -1.767319        -2.688169
 C         1.120886        -0.324484        -2.068632
 H        -0.399261         0.973399        -0.388388
 H        -0.439536        -0.329396         0.823962
 H         0.688958         1.039976         1.114457
 H         3.565751         0.342103        -0.269842
 H         2.989329         0.653123        -2.736552
 H         3.858606        -1.844426        -3.655402
 H         2.929505        -2.293714        -2.213500
 H        -0.299956        -1.810455        -3.204109
 H         0.919883        -2.618481        -2.028525
 H         0.447604         0.380481        -2.513634
