19
Iteration:  1846
 C         0.252910         0.233460         0.341402
 C         1.288383        -0.255548        -0.592349
 O         2.227627        -1.176692        -0.135673
 C         2.778069        -0.008884        -0.913832
 C         2.440356        -0.148007        -2.442534
 C         2.860095        -1.460619        -3.094189
 O         1.830262        -2.458962        -3.012292
 C         0.610539        -1.594436        -2.980811
 C         0.946849        -0.403043        -2.103758
 H        -0.496520         0.915710        -0.052657
 H        -0.209504        -0.536669         0.895832
 H         0.827865         0.737077         1.161902
 H         3.459325         0.922466        -0.445229
 H         2.599745         0.879599        -3.050916
 H         3.126630        -1.317613        -4.178510
 H         3.874708        -1.778788        -2.691487
 H         0.359055        -1.353870        -4.001718
 H        -0.075307        -2.326190        -2.639827
 H         0.433484         0.534778        -2.410909
