19
Iteration:   680charge 0 multiplicity 1
 C         0.246316         0.470128         0.321694
 C         1.227420        -0.202542        -0.564422
 O         2.097513        -1.230541        -0.263279
 C         2.720181        -0.135120        -0.845731
 C         2.483095        -0.149134        -2.364416
 C         2.914904        -1.384134        -3.283399
 O         1.912494        -2.390900        -3.176387
 C         0.726002        -1.803825        -2.610251
 C         0.965450        -0.370729        -2.106935
 H        -0.320723         1.162839        -0.292006
 H        -0.510737        -0.478317         0.563379
 H         0.503579         0.922759         1.247451
 H         3.559746         0.326892        -0.335211
 H         2.670244         0.712015        -2.862315
 H         2.946626        -1.066572        -4.357624
 H         3.876742        -1.878898        -3.028959
 H        -0.136316        -1.791475        -3.299833
 H         0.511131        -2.454350        -1.792339
 H         0.294129         0.260537        -2.589207
