19
Iteration:  3442
 C         0.199274         0.374748         0.337136
 C         1.229717        -0.206366        -0.578124
 O         2.094835        -1.256789        -0.081391
 C         2.711878        -0.065085        -0.720788
 C         2.678612        -0.342913        -2.266440
 C         2.916061        -1.656492        -3.024191
 O         1.696537        -2.011299        -3.695263
 C         0.684457        -1.708643        -2.742123
 C         1.098010        -0.366660        -2.120623
 H        -0.246341         1.298434        -0.099585
 H        -0.583359        -0.362820         0.221995
 H         0.548980         0.572092         1.445893
 H         3.303953         0.403470        -0.024943
 H         3.052692         0.508934        -2.887807
 H         3.614487        -1.435276        -3.862451
 H         3.239205        -2.568279        -2.382969
 H        -0.229044        -1.632781        -3.199228
 H         0.735842        -2.476780        -1.968301
 H         0.632465         0.518941        -2.671434
