19
Iteration:  4763
 C         0.277361         0.436225         0.354734
 C         1.150929        -0.243330        -0.625508
 O         1.761121        -1.581396        -0.304782
 C         2.652132        -0.476349        -0.578501
 C         2.713559        -0.329000        -2.071796
 C         2.978561        -1.550025        -3.049484
 O         1.772219        -2.170000        -3.227037
 C         0.746419        -1.243898        -3.184141
 C         1.223116        -0.070305        -2.187764
 H         1.060596         0.577523         1.300710
 H        -0.134504         1.354571        -0.002054
 H        -0.591075        -0.318217         0.686140
 H         3.445604        -0.435634         0.339730
 H         3.317735         0.502515        -2.272148
 H         3.331746        -1.209050        -4.059417
 H         3.774464        -2.316440        -2.815254
 H         0.577380        -0.741555        -4.219286
 H        -0.166988        -1.707126        -2.894203
 H         0.879776         0.895845        -2.670774
