19
Iteration:  3728
 C         0.262869         0.500902         0.381545
 C         1.207310        -0.176768        -0.595055
 O         1.945970        -1.419910        -0.082230
 C         2.705053        -0.324448        -0.655822
 C         2.636783        -0.357235        -2.219564
 C         2.988331        -1.645935        -3.060194
 O         1.752854        -1.924314        -3.743125
 C         0.671138        -1.684348        -2.788324
 C         1.112374        -0.239548        -2.161951
 H         0.799478         1.129734         1.169517
 H        -0.373258         1.278816        -0.061371
 H        -0.457677        -0.208217         0.829188
 H         3.524873        -0.010727         0.076001
 H         3.112890         0.571374        -2.563216
 H         3.657540        -1.325660        -3.832414
 H         3.416583        -2.468309        -2.492254
 H        -0.221589        -1.670303        -3.362616
 H         0.620406        -2.395038        -1.891051
 H         0.674043         0.608134        -2.715691
