19
Iteration:   576
 C         0.394288         0.124432         0.433505
 C         1.205585        -0.294728        -0.687435
 O         2.339243        -1.129816        -0.307813
 C         2.601616         0.089799        -0.964838
 C         2.458282        -0.098225        -2.467463
 C         2.922278        -1.554887        -2.947662
 O         1.735767        -2.360086        -2.804059
 C         0.609849        -1.632845        -3.021634
 C         1.002088        -0.369599        -2.199126
 H        -0.025094         1.142259         0.170626
 H        -0.590543        -0.608630         0.540838
 H         0.896917        -0.087388         1.408277
 H         2.984281         0.920527        -0.308257
 H         2.706123         0.760571        -3.217746
 H         3.265162        -1.588437        -4.061981
 H         3.743369        -2.048643        -2.395489
 H         0.501116        -1.425443        -4.083293
 H        -0.379958        -2.050877        -2.725666
 H         0.326335         0.528394        -2.496509
