19
Iteration:  1832charge 0 multiplicity 1
 C         0.302587         0.320819         0.439723
 C         1.277961        -0.250881        -0.600266
 O         2.228569        -1.175955        -0.037563
 C         2.667677        -0.003841        -0.923359
 C         2.465398        -0.175674        -2.457297
 C         2.982045        -1.448052        -3.163008
 O         1.834956        -2.401905        -3.105847
 C         0.601108        -1.706970        -2.947400
 C         0.927112        -0.419016        -2.142843
 H        -0.356305         1.121563        -0.082059
 H        -0.338914        -0.472316         0.613086
 H         0.714882         0.738267         1.247710
 H         3.318088         0.614076        -0.364533
 H         2.776841         0.715613        -3.057985
 H         3.164302        -1.189876        -4.286012
 H         3.796493        -1.987435        -2.667993
 H         0.273206        -1.220463        -3.890716
 H        -0.263239        -2.331174        -2.533839
 H         0.168339         0.325403        -2.363633
