19
Iteration:  1293charge 0 multiplicity 1
 C         0.306953         0.390414         0.361777
 C         1.199296        -0.174897        -0.647895
 O         2.036919        -1.351702        -0.384047
 C         2.692606        -0.113813        -0.798314
 C         2.473362        -0.166210        -2.440889
 C         2.939054        -1.351632        -3.155779
 O         1.864394        -2.324065        -3.123695
 C         0.737831        -1.789346        -2.569166
 C         0.979505        -0.317709        -2.214929
 H        -0.270979         1.180377         0.043143
 H        -0.368407        -0.300834         0.735444
 H         0.982392         0.882143         1.145591
 H         3.452881         0.223224        -0.210965
 H         3.036253         0.733933        -2.918327
 H         3.276948        -1.050093        -4.130405
 H         3.799100        -1.783419        -2.719221
 H        -0.112240        -2.043202        -3.216347
 H         0.475041        -2.292582        -1.547849
 H         0.309708         0.406631        -2.707316
