19
Iteration:  3116charge 0 multiplicity 1
 C         0.184428         0.266399         0.484921
 C         1.254715        -0.171836        -0.609426
 O         2.142734        -1.189524        -0.282617
 C         2.700098        -0.023724        -0.883173
 C         2.597951        -0.218857        -2.411963
 C         3.083329        -1.538384        -3.067337
 O         1.778046        -2.320318        -3.247286
 C         0.596885        -1.670178        -2.785275
 C         0.943134        -0.352161        -2.081321
 H        -0.801916        -0.062111        -0.126310
 H         0.532242        -0.106100         1.447441
 H         0.035728         1.293337         0.489033
 H         3.443353         0.639800        -0.220605
 H         3.029649         0.658962        -2.958027
 H         3.510710        -1.278002        -4.104185
 H         3.701528        -2.173532        -2.506331
 H        -0.019435        -1.434654        -3.691695
 H         0.023818        -2.450337        -2.155308
 H         0.435507         0.446034        -2.678563
