19
Iteration:   890charge 0 multiplicity 1
 C         0.367915         0.072243         0.467801
 C         1.291672        -0.241255        -0.662946
 O         2.331300        -1.152735        -0.325057
 C         2.653850         0.119377        -1.025828
 C         2.408214        -0.169054        -2.431988
 C         3.013798        -1.535665        -2.874078
 O         1.736845        -2.406833        -2.867587
 C         0.537412        -1.537019        -3.052860
 C         0.887714        -0.356822        -2.210944
 H        -0.547823         0.636703         0.140549
 H         0.153676        -0.845500         0.984746
 H         0.869156         0.690933         1.239742
 H         3.340790         0.866725        -0.506133
 H         2.641303         0.650759        -3.104291
 H         3.344659        -1.532465        -3.901832
 H         3.523400        -2.036856        -2.057467
 H         0.681175        -1.254552        -4.132265
 H        -0.343191        -2.172767        -2.834805
 H         0.271646         0.598270        -2.475698
