19
Iteration:   686
 C         0.227467         0.497298         0.334062
 C         1.247383        -0.198433        -0.590931
 O         2.106684        -1.281524        -0.235021
 C         2.728627        -0.119437        -0.818734
 C         2.486654        -0.191134        -2.389791
 C         2.897602        -1.355451        -3.307834
 O         1.920508        -2.363357        -3.184516
 C         0.715884        -1.812917        -2.622435
 C         0.948032        -0.411274        -2.111022
 H        -0.388086         1.231088        -0.216494
 H        -0.448693        -0.251582         0.640410
 H         0.619603         1.131852         1.210039
 H         3.495918         0.319344        -0.181032
 H         2.714190         0.889147        -2.842792
 H         3.018045        -1.009141        -4.375981
 H         3.795813        -1.859035        -2.916984
 H        -0.001262        -2.064310        -3.440383
 H         0.505813        -2.382788        -1.657562
 H         0.188280         0.273475        -2.651186
