19
Iteration:   837charge 0 multiplicity 1
 C         0.247234         0.083940         0.320734
 C         1.258415        -0.209240        -0.701473
 O         2.251380        -1.147967        -0.290345
 C         2.753802         0.028647        -0.919777
 C         2.484601        -0.124948        -2.472665
 C         2.848123        -1.465031        -3.097798
 O         1.824051        -2.376997        -2.851806
 C         0.593596        -1.640225        -2.744492
 C         1.009193        -0.306823        -2.202038
 H        -0.352586         1.112997         0.108232
 H        -0.574023        -0.660035         0.369734
 H         0.735906        -0.025719         1.424286
 H         3.539180         0.479978        -0.336825
 H         2.687753         0.727074        -3.170876
 H         3.058710        -1.508235        -4.260668
 H         3.808443        -1.929638        -2.794265
 H         0.162154        -1.550567        -3.734876
 H        -0.040873        -2.409317        -2.233804
 H         0.384702         0.642466        -2.502143
