19
Iteration:  1348charge 0 multiplicity 1
 C         0.290994         0.416095         0.420298
 C         1.223924        -0.210018        -0.592209
 O         2.283845        -1.120451        -0.067077
 C         2.633226         0.027693        -0.821202
 C         2.500432        -0.247572        -2.351866
 C         3.002541        -1.557910        -3.020274
 O         1.844840        -2.260701        -3.524681
 C         0.534369        -1.813078        -2.840035
 C         0.914569        -0.519807        -2.130666
 H        -0.098848         1.180531        -0.098349
 H        -0.512851        -0.166242         0.770277
 H         0.857111         0.728166         1.363418
 H         3.159486         0.824858        -0.478405
 H         2.849276         0.763190        -2.896582
 H         3.642492        -1.242686        -3.831470
 H         3.453404        -2.255286        -2.337243
 H        -0.156615        -1.789456        -3.692946
 H         0.183135        -2.526084        -1.957235
 H         0.318385         0.307488        -2.574142
