19
Iteration:   827
 C         0.183662         0.114317         0.294911
 C         1.313778        -0.188583        -0.658699
 O         2.191520        -1.188343        -0.283149
 C         2.812996        -0.011631        -0.949878
 C         2.476486        -0.087294        -2.509896
 C         2.882459        -1.467854        -3.159069
 O         1.827441        -2.395386        -2.897748
 C         0.643966        -1.711073        -2.672793
 C         0.990394        -0.302413        -2.137147
 H        -0.185380         1.262757         0.225588
 H        -0.600907        -0.620600         0.116757
 H         0.642461         0.088059         1.426893
 H         3.389839         0.659451        -0.390544
 H         2.749861         0.882534        -3.055051
 H         2.965967        -1.205364        -4.303563
 H         3.771999        -1.880969        -2.641808
 H         0.196154        -1.513218        -3.668784
 H        -0.166709        -2.129298        -1.998073
 H         0.246258         0.516916        -2.524733
