19
Iteration:  3061charge 0 multiplicity 1
 C         0.337051         0.339486         0.402788
 C         1.145795        -0.259398        -0.635337
 O         2.136054        -1.248434        -0.338787
 C         2.632568         0.080583        -0.861837
 C         2.512256        -0.206048        -2.401465
 C         3.010229        -1.549411        -2.900005
 O         1.834076        -2.190709        -3.392915
 C         0.620816        -1.737239        -2.668848
 C         0.993399        -0.422174        -2.161285
 H        -0.727961         0.710563         0.101314
 H         0.117037        -0.390749         1.191384
 H         0.879031         1.041548         0.894572
 H         3.408245         0.527727        -0.151910
 H         2.837598         0.662970        -2.998820
 H         3.728757        -1.515302        -3.764290
 H         3.417578        -2.185000        -2.183836
 H        -0.200565        -1.824797        -3.472249
 H         0.447191        -2.526097        -1.836665
 H         0.492928         0.452008        -2.601113
