19
Iteration:  3664
 C         0.234442         0.327732         0.396232
 C         1.271439        -0.308896        -0.589640
 O         2.113583        -1.347413        -0.243483
 C         2.710652        -0.110891        -0.746966
 C         2.639585        -0.205907        -2.283153
 C         2.865792        -1.747411        -2.786668
 O         1.768611        -2.064510        -3.600821
 C         0.598894        -1.503023        -2.913781
 C         1.080555        -0.252285        -2.139422
 H         0.273828        -0.368414         1.306639
 H         0.474984         1.381142         0.513747
 H        -0.734033         0.268033         0.075729
 H         3.506058         0.286562        -0.070346
 H         3.052930         0.538528        -2.947281
 H         3.739502        -1.852421        -3.402312
 H         2.955739        -2.396174        -1.949239
 H         0.041643        -1.131375        -3.723920
 H         0.200859        -2.429109        -2.433464
 H         0.505761         0.777876        -2.341275
