19
Iteration:  4479
 C         0.304577         0.349909         0.290699
 C         1.230417        -0.204334        -0.658459
 O         1.727074        -1.520481        -0.160079
 C         2.653462        -0.450078        -0.603119
 C         2.770058        -0.324167        -2.135677
 C         3.048128        -1.529262        -2.981259
 O         1.733347        -2.198354        -3.406700
 C         0.610223        -1.229480        -3.064589
 C         1.231316        -0.094751        -2.169744
 H         0.705162         0.170078         1.383916
 H         0.128005         1.347679         0.028183
 H        -0.679786        -0.227947         0.051785
 H         3.453201        -0.344561         0.085920
 H         3.302068         0.557538        -2.371525
 H         3.532690        -1.308360        -3.979379
 H         3.643890        -2.391018        -2.556230
 H         0.301786        -0.766471        -3.934336
 H        -0.115775        -1.832862        -2.572931
 H         1.116630         0.946825        -2.429099
