19
Iteration:   378charge 0 multiplicity 1
 C         0.136953         0.405963         0.311181
 C         1.289865        -0.156580        -0.552097
 O         2.286361        -1.120833        -0.080547
 C         2.767001         0.095878        -0.805683
 C         2.431007        -0.228923        -2.390200
 C         2.943964        -1.550823        -3.014038
 O         1.725106        -2.184258        -3.659364
 C         0.703668        -1.946604        -2.615556
 C         0.988547        -0.541176        -2.091167
 H         0.333151         1.435777         0.218201
 H        -0.944639         0.229266        -0.249996
 H         0.202344         0.198277         1.327353
 H         3.594922         0.687423        -0.401105
 H         2.628047         0.653184        -2.976730
 H         3.613677        -1.402956        -3.801965
 H         3.281618        -2.275535        -2.207086
 H        -0.209528        -2.138568        -3.085431
 H         0.799270        -2.757718        -1.829098
 H         0.338885         0.198525        -2.500872
