19
Iteration:  2474
 C         0.356941         0.135897         0.495299
 C         1.169234        -0.213050        -0.704131
 O         2.322217        -1.183459        -0.409918
 C         2.604090         0.128042        -0.863327
 C         2.501321        -0.119134        -2.432439
 C         2.927389        -1.554693        -2.937016
 O         1.826871        -2.425213        -2.977651
 C         0.555019        -1.638476        -2.960919
 C         0.969066        -0.347150        -2.218631
 H        -0.473276         0.752426         0.264589
 H        -0.109561        -0.903393         0.903914
 H         0.857892         0.790961         1.136848
 H         3.248206         0.891294        -0.200615
 H         2.743044         0.711323        -3.060409
 H         3.648642        -1.583864        -3.752030
 H         3.403294        -1.851304        -2.017348
 H         0.190061        -1.307208        -3.914019
 H        -0.200102        -2.176043        -2.414131
 H         0.265435         0.584272        -2.522056
