19
Iteration:  1510
 C         0.429975         0.501223         0.432608
 C         1.146210        -0.190083        -0.679565
 O         2.012589        -1.385261        -0.264328
 C         2.600622        -0.144038        -0.857314
 C         2.505099        -0.152800        -2.369988
 C         2.878838        -1.305362        -3.318233
 O         2.049572        -2.383100        -2.877204
 C         0.725370        -1.792524        -2.825442
 C         0.889365        -0.336983        -2.212534
 H         0.232029         1.499444         0.188143
 H        -0.579919        -0.037817         0.678958
 H         1.078200         0.293007         1.386018
 H         3.422590         0.313004        -0.351283
 H         2.664391         0.793601        -2.691616
 H         2.558162        -0.977778        -4.307701
 H         3.831353        -1.728989        -3.068790
 H         0.238804        -1.731047        -3.855468
 H         0.232087        -2.502300        -2.187144
 H         0.174495         0.281929        -2.777723
