19
Iteration:  2882charge 0 multiplicity 1
 C         0.253454         0.311638         0.361895
 C         1.290123        -0.133510        -0.688664
 O         2.124913        -1.241889        -0.336431
 C         2.694092        -0.098380        -0.914652
 C         2.469257        -0.176729        -2.391352
 C         3.003182        -1.401157        -2.995607
 O         1.847724        -2.313253        -3.220971
 C         0.651124        -1.767694        -2.670951
 C         0.921337        -0.365483        -2.124731
 H        -0.237585         1.164788        -0.013855
 H        -0.382102        -0.516674         0.768653
 H         0.775968         0.738020         1.340411
 H         3.593945         0.333585        -0.348430
 H         2.707729         0.777801        -2.923897
 H         3.395258        -1.293847        -3.996300
 H         3.740088        -1.916275        -2.386513
 H        -0.074234        -1.901443        -3.394849
 H         0.358283        -2.447007        -1.757564
 H         0.119788         0.390895        -2.515768
