19
Iteration:  4444charge 0 multiplicity 1
 C         0.216984         0.390581         0.422149
 C         1.135046        -0.198522        -0.651452
 O         1.899157        -1.553916        -0.422162
 C         2.606370        -0.384656        -0.704252
 C         2.784628        -0.345790        -2.164389
 C         3.021814        -1.692684        -2.777716
 O         1.790583        -2.081459        -3.451565
 C         0.610125        -1.243479        -3.014142
 C         1.223486        -0.100229        -2.139639
 H         0.554926        -0.053971         1.370616
 H         0.440271         1.456231         0.505410
 H        -0.930482         0.202289         0.290855
 H         3.494698        -0.276394         0.108431
 H         3.266236         0.539755        -2.501682
 H         3.882236        -1.540747        -3.546345
 H         3.182809        -2.571442        -2.033533
 H         0.069378        -0.915197        -3.916155
 H        -0.164729        -1.733424        -2.500333
 H         0.928228         0.822634        -2.686580
