19
Iteration:  1570charge 0 multiplicity 1
 C         0.255976         0.371702         0.339455
 C         1.232285        -0.246687        -0.657163
 O         2.107522        -1.310414        -0.358590
 C         2.723326        -0.085540        -0.892080
 C         2.528598        -0.089019        -2.362219
 C         2.925536        -1.347898        -3.191955
 O         1.884570        -2.408302        -3.060596
 C         0.632613        -1.755396        -2.639466
 C         0.982600        -0.360726        -2.108635
 H         0.131130         1.496981         0.078237
 H        -0.678537        -0.063448         0.161574
 H         0.516518         0.377267         1.331908
 H         3.479699         0.440619        -0.316308
 H         2.595469         0.918597        -2.995799
 H         3.240954        -1.109212        -4.170913
 H         3.883434        -1.777128        -2.824818
 H        -0.080800        -1.890288        -3.396470
 H         0.269290        -2.304274        -1.725768
 H         0.350676         0.434067        -2.515060
