19
Iteration:  4234
 C         0.183912         0.388722         0.247902
 C         1.273635        -0.215614        -0.617696
 O         1.846128        -1.541455        -0.346412
 C         2.697875        -0.373855        -0.625541
 C         2.750965        -0.308130        -2.153084
 C         2.951776        -1.659864        -2.924778
 O         1.745268        -2.007839        -3.495196
 C         0.667780        -1.400010        -2.848419
 C         1.201832        -0.084207        -2.116933
 H         0.346811        -0.151928         1.190755
 H         0.319402         1.511951         0.396966
 H        -0.755855         0.102085        -0.199575
 H         3.470861        -0.254528        -0.003859
 H         3.445652         0.477336        -2.475203
 H         3.713228        -1.498811        -3.673469
 H         3.292624        -2.418859        -2.262755
 H        -0.170401        -1.141472        -3.537986
 H         0.133357        -1.981400        -2.090672
 H         0.947935         0.850556        -2.654815
