19
Iteration:   824
 C         0.181287         0.145525         0.302191
 C         1.315342        -0.163372        -0.641375
 O         2.192664        -1.216895        -0.285408
 C         2.789326        -0.020746        -0.959555
 C         2.494590        -0.091328        -2.512877
 C         2.906631        -1.447495        -3.190091
 O         1.834447        -2.420511        -2.903717
 C         0.633668        -1.706179        -2.674018
 C         0.973379        -0.304079        -2.116295
 H        -0.145090         1.236995         0.211421
 H        -0.628114        -0.623023         0.029615
 H         0.527513         0.091081         1.370295
 H         3.468812         0.759729        -0.395747
 H         2.788009         0.821519        -2.962994
 H         2.939773        -1.141787        -4.287603
 H         3.757194        -1.833140        -2.609282
 H         0.112705        -1.513774        -3.593490
 H        -0.030547        -2.107414        -1.916302
 H         0.203330         0.425429        -2.535211
