19
Iteration:  4850charge 0 multiplicity 1
 C         0.201401         0.365342         0.333745
 C         1.211939        -0.272024        -0.649809
 O         1.727385        -1.547118        -0.454086
 C         2.625934        -0.466217        -0.619844
 C         2.794376        -0.305471        -2.155721
 C         3.054018        -1.574714        -2.979596
 O         1.758693        -2.130879        -3.276556
 C         0.683251        -1.228794        -2.897527
 C         1.263977        -0.060376        -2.215567
 H         0.256093        -0.197399         1.372649
 H         0.520911         1.287353         0.558998
 H        -0.876926         0.469270        -0.018435
 H         3.355193        -0.251626         0.323976
 H         3.320468         0.451027        -2.574613
 H         3.577831        -1.592601        -4.017478
 H         3.750266        -2.148117        -2.267455
 H         0.134802        -0.996891        -3.923743
 H         0.020191        -1.783795        -2.187601
 H         1.080071         0.981477        -2.601297
