19
Iteration:  2871charge 0 multiplicity 1
 C         0.243193         0.310098         0.350729
 C         1.181746        -0.187798        -0.582501
 O         2.225897        -1.285611        -0.330781
 C         2.705918        -0.033881        -0.862378
 C         2.455319        -0.147152        -2.400237
 C         2.968964        -1.506921        -3.059716
 O         1.866607        -2.329967        -3.200233
 C         0.622559        -1.753878        -2.643037
 C         0.954514        -0.282347        -2.217708
 H        -0.495083         0.906813        -0.138305
 H        -0.383614        -0.574936         0.675649
 H         0.798242         0.860746         1.246173
 H         3.576681         0.561616        -0.328816
 H         2.726653         0.776070        -2.991333
 H         3.432077        -1.174674        -3.986249
 H         3.744101        -1.965334        -2.439130
 H        -0.091109        -1.722689        -3.379490
 H         0.215583        -2.372505        -1.733890
 H         0.362546         0.643292        -2.681359
