19
Iteration:  4645charge 0 multiplicity 1
 C         0.159706         0.394751         0.190020
 C         1.223261        -0.271312        -0.595587
 O         1.911836        -1.483256        -0.254842
 C         2.708379        -0.445428        -0.552016
 C         2.838530        -0.326288        -2.103069
 C         2.949098        -1.554098        -3.007197
 O         1.674333        -2.105549        -3.375323
 C         0.628540        -1.309806        -3.062273
 C         1.235895        -0.206234        -2.101219
 H        -0.088424         0.037365         1.224321
 H         0.354710         1.435290         0.301371
 H        -0.781871         0.406412        -0.290971
 H         3.453858        -0.041617         0.286292
 H         3.647265         0.489730        -2.337325
 H         3.600250        -1.196203        -3.809815
 H         3.599085        -2.390914        -2.685030
 H         0.278280        -0.716141        -4.026659
 H        -0.264195        -1.915383        -2.677769
 H         0.841295         0.793551        -2.354020
