19
Iteration:  3657
 C         0.250110         0.231473         0.336113
 C         1.241303        -0.276328        -0.594264
 O         2.083391        -1.339897        -0.217674
 C         2.768141        -0.075054        -0.687102
 C         2.699090        -0.236118        -2.326197
 C         2.886162        -1.669034        -2.810316
 O         1.727751        -2.057920        -3.549500
 C         0.584430        -1.538810        -2.951069
 C         1.073236        -0.264708        -2.109199
 H         0.310163        -0.138498         1.373978
 H         0.689503         1.225034         0.630214
 H        -0.820709         0.369602        -0.066209
 H         3.485691         0.304679        -0.072437
 H         3.023797         0.524463        -3.048518
 H         3.725639        -1.927595        -3.511351
 H         2.930367        -2.403925        -1.910378
 H        -0.069927        -1.110556        -3.796999
 H         0.054092        -2.309641        -2.435100
 H         0.611635         0.649592        -2.422180
