19
Iteration:  2681charge 0 multiplicity 1
 C         0.251575         0.382511         0.292268
 C         1.183221        -0.196166        -0.641032
 O         2.128743        -1.249676        -0.179098
 C         2.706616        -0.168501        -0.808413
 C         2.496887        -0.144336        -2.393185
 C         2.943576        -1.370787        -3.308695
 O         1.918679        -2.361883        -3.094119
 C         0.713306        -1.763905        -2.671132
 C         0.981560        -0.362291        -2.108612
 H        -0.287090         1.283444        -0.147505
 H        -0.602841        -0.308105         0.296756
 H         0.694606         0.647304         1.169057
 H         3.456767         0.345053        -0.231772
 H         2.556341         0.806483        -2.860103
 H         2.775346        -1.097439        -4.413747
 H         3.913840        -1.794108        -3.155896
 H         0.016920        -1.629203        -3.557464
 H         0.161289        -2.484228        -1.900588
 H         0.194308         0.362756        -2.378964
