19
Iteration:  1054charge 0 multiplicity 1
 C         0.355540         0.652655         0.387551
 C         1.183234        -0.188436        -0.572959
 O         2.182615        -1.117466        -0.026413
 C         2.612910        -0.024462        -0.855037
 C         2.466647        -0.294621        -2.297946
 C         2.948162        -1.539587        -3.107072
 O         1.798228        -2.100231        -3.717490
 C         0.762232        -2.085740        -2.642591
 C         0.896952        -0.644560        -2.071017
 H         0.078122         1.710547        -0.034385
 H        -0.459390         0.148654         0.789070
 H         1.083325         0.790586         1.309554
 H         3.302785         0.712648        -0.471499
 H         2.574241         0.751792        -2.725707
 H         3.544812        -1.065227        -3.953548
 H         3.512013        -2.175521        -2.340326
 H        -0.041903        -2.194940        -3.448236
 H         0.839108        -2.949895        -1.972028
 H         0.111713         0.124644        -2.578250
