19
Iteration:   139charge 0 multiplicity 1
 C         0.314110         0.321004         0.462682
 C         1.157227        -0.153479        -0.707244
 O         2.116521        -1.186374        -0.272689
 C         2.665759        -0.043813        -0.838329
 C         2.553385        -0.155382        -2.429352
 C         2.994491        -1.423426        -3.104652
 O         1.850448        -2.426083        -3.169425
 C         0.612746        -1.799266        -2.662451
 C         0.970732        -0.308847        -2.291870
 H         0.059403         1.357257         0.418057
 H        -0.566014        -0.462999         0.675410
 H         0.867587         0.189362         1.377330
 H         3.279168         0.510542        -0.277583
 H         2.848625         0.803116        -2.889032
 H         3.517247        -1.316099        -4.097996
 H         3.791287        -1.989502        -2.488136
 H        -0.162933        -1.799881        -3.442934
 H         0.237798        -2.385578        -1.780665
 H         0.383183         0.521843        -2.799066
