19
Iteration:  1988charge 0 multiplicity 1
 C         0.266364         0.462687         0.400755
 C         1.263550        -0.242273        -0.484696
 O         2.183431        -1.250549        -0.149469
 C         2.646554        -0.022599        -0.936244
 C         2.427566        -0.178858        -2.464914
 C         2.924634        -1.393389        -3.207148
 O         1.958421        -2.424405        -3.101647
 C         0.655506        -1.794770        -2.925584
 C         0.909267        -0.403214        -2.039347
 H         0.208044         1.618326         0.221509
 H        -0.642367         0.013042         0.143453
 H         0.324776         0.206658         1.517060
 H         3.455332         0.641865        -0.410911
 H         2.885776         0.806871        -2.932419
 H         3.069033        -1.235673        -4.306488
 H         3.883649        -1.891929        -2.882496
 H         0.142708        -1.355476        -3.828035
 H         0.073770        -2.572123        -2.428040
 H         0.164075         0.298253        -2.405713
