19
Iteration:  4170
 C         0.187910         0.254773         0.340842
 C         1.242935        -0.279179        -0.569707
 O         1.946988        -1.447998        -0.219613
 C         2.730173        -0.272387        -0.607912
 C         2.758311        -0.364775        -2.218044
 C         2.961436        -1.735501        -2.809393
 O         1.727274        -2.049219        -3.558860
 C         0.561512        -1.168168        -3.109733
 C         1.215831        -0.162764        -2.126740
 H         0.742284         0.471754         1.225418
 H        -0.368534         1.196814         0.002487
 H        -0.741594        -0.363259         0.485601
 H         3.409593        -0.025228         0.145993
 H         3.309863         0.379882        -2.716158
 H         3.730425        -1.846332        -3.603642
 H         3.151343        -2.483157        -2.046006
 H         0.193217        -0.672801        -3.988591
 H        -0.154597        -1.999502        -2.652367
 H         0.986393         0.904317        -2.425066
