19
Iteration:   537
 C         0.220739         0.125693         0.415196
 C         1.266926        -0.099380        -0.647848
 O         2.250566        -1.152240        -0.241044
 C         2.719770         0.025910        -0.912138
 C         2.537080        -0.153830        -2.479739
 C         2.906692        -1.500291        -3.087818
 O         1.762674        -2.411014        -3.008681
 C         0.630625        -1.676815        -2.816942
 C         0.990783        -0.344978        -2.196164
 H        -0.591588         0.759474        -0.070179
 H        -0.099424        -0.770807         0.891792
 H         0.513388         0.697887         1.345215
 H         3.494149         0.763109        -0.594130
 H         2.620933         0.796894        -3.003282
 H         3.436787        -1.458373        -4.084148
 H         3.596622        -2.056372        -2.393608
 H        -0.002737        -1.508919        -3.764699
 H         0.008174        -2.371806        -2.233095
 H         0.494930         0.516677        -2.614454
