19
Iteration:  2052
 C         0.270871         0.469763         0.387620
 C         1.209107        -0.188819        -0.627578
 O         1.936876        -1.349157        -0.376631
 C         2.658171        -0.226585        -0.933321
 C         2.475975        -0.100353        -2.419787
 C         2.950545        -1.324000        -3.295737
 O         2.013563        -2.355517        -3.001855
 C         0.749909        -1.789127        -2.574408
 C         0.944357        -0.353437        -2.132130
 H        -0.384025         1.455800         0.099888
 H        -0.160896        -0.361500         0.916640
 H         0.984119         0.881360         1.143063
 H         3.540456         0.101791        -0.256518
 H         2.961851         0.783687        -2.963072
 H         3.033890        -0.901307        -4.272842
 H         3.976691        -1.630299        -2.968237
 H         0.032380        -1.875842        -3.370007
 H         0.408768        -2.522564        -1.757473
 H         0.237892         0.357177        -2.598588
