19
Iteration:   479
 C         0.250219         0.470058         0.376868
 C         1.224822        -0.157618        -0.647775
 O         2.099247        -1.272831        -0.274164
 C         2.669015        -0.067517        -0.802079
 C         2.524654        -0.147155        -2.454173
 C         3.015332        -1.428353        -3.137258
 O         1.841386        -2.308901        -3.342596
 C         0.695493        -1.897466        -2.517544
 C         0.951970        -0.402154        -2.118643
 H        -0.534508         0.945814        -0.066009
 H        -0.365277        -0.383506         0.984962
 H         0.883282         1.197909         0.913059
 H         3.456368         0.505124        -0.303443
 H         2.581887         0.862190        -2.984837
 H         3.306416        -1.110267        -4.135289
 H         3.807053        -2.115775        -2.741022
 H        -0.228986        -1.993850        -3.206910
 H         0.744310        -2.570713        -1.651262
 H         0.271480         0.401760        -2.566298
