19
Iteration:   223charge 0 multiplicity 1
 C         0.240451         0.342082         0.376047
 C         1.248178        -0.212552        -0.621670
 O         2.166070        -1.201781        -0.093239
 C         2.693582        -0.078969        -0.820044
 C         2.488505        -0.140938        -2.407032
 C         2.830422        -1.456761        -3.286954
 O         1.899682        -2.478830        -3.004057
 C         0.647954        -1.649537        -2.935174
 C         1.047839        -0.370396        -2.169002
 H        -0.787972         0.504263        -0.020573
 H         0.096445        -0.407055         1.163809
 H         0.654399         1.236564         0.865185
 H         3.637747         0.494539        -0.266540
 H         2.785771         0.800987        -2.916452
 H         2.642576        -1.133086        -4.292680
 H         3.854552        -1.809326        -3.143850
 H         0.349726        -1.252497        -3.927204
 H        -0.046109        -2.297916        -2.404637
 H         0.352425         0.419443        -2.348298
