19
Iteration:   727
 C         0.437878         0.619316         0.405218
 C         1.197500        -0.216972        -0.601852
 O         1.945271        -1.321283        -0.154652
 C         2.643603        -0.114176        -0.814226
 C         2.371711        -0.216781        -2.352165
 C         2.934421        -1.287819        -3.302149
 O         2.038689        -2.354198        -3.280827
 C         0.769817        -1.959450        -2.706310
 C         0.852230        -0.474270        -2.136953
 H        -0.047370         1.535344        -0.189146
 H        -0.212746         0.233132         1.210288
 H         1.282788         1.180914         0.890790
 H         3.413831         0.515501        -0.202868
 H         2.602628         0.745019        -2.907924
 H         3.034863        -0.940982        -4.326449
 H         3.886253        -1.576651        -2.857974
 H        -0.089624        -1.933499        -3.449349
 H         0.667554        -2.685529        -1.853058
 H         0.177816         0.391247        -2.472337
