19
Iteration:  2031charge 0 multiplicity 1
 C         0.446113         0.424336         0.404453
 C         1.169206        -0.214771        -0.690209
 O         1.996991        -1.325653        -0.247353
 C         2.548808        -0.161877        -0.835554
 C         2.507473        -0.127666        -2.398518
 C         2.926146        -1.303199        -3.240798
 O         1.985870        -2.344938        -3.053746
 C         0.697045        -1.868762        -2.646271
 C         0.931029        -0.338661        -2.267798
 H         0.095087         1.486409        -0.174620
 H        -0.334286        -0.228224         0.713448
 H         1.060196         0.713272         1.349816
 H         3.292731         0.403764        -0.164996
 H         2.693797         0.971042        -2.834819
 H         2.974952        -0.988587        -4.281456
 H         3.955265        -1.674314        -2.990873
 H         0.052243        -2.082395        -3.497637
 H         0.330342        -2.435258        -1.745267
 H         0.390753         0.511544        -2.683518
