19
Iteration:  4446charge 0 multiplicity 1
 C         0.199827         0.410774         0.437357
 C         1.138116        -0.207355        -0.670789
 O         1.899429        -1.547277        -0.417049
 C         2.619435        -0.390179        -0.693926
 C         2.788085        -0.344818        -2.169439
 C         3.027983        -1.690277        -2.772694
 O         1.783565        -2.082709        -3.448718
 C         0.623387        -1.251715        -3.025254
 C         1.212639        -0.096326        -2.135079
 H         0.615897        -0.087940         1.425955
 H         0.376595         1.449617         0.496838
 H        -0.946952         0.209294         0.258045
 H         3.455756        -0.355936         0.032904
 H         3.280389         0.522093        -2.507890
 H         3.787188        -1.529981        -3.609911
 H         3.195597        -2.582618        -2.134043
 H         0.164969        -0.875690        -3.874794
 H        -0.154789        -1.771901        -2.493875
 H         0.924700         0.809049        -2.624332
