19
Iteration:  2742charge 0 multiplicity 1
 C         0.303096         0.190931         0.445207
 C         1.286372        -0.219432        -0.675092
 O         2.163757        -1.254118        -0.413971
 C         2.640436         0.012793        -0.994151
 C         2.466846        -0.122611        -2.460803
 C         2.976311        -1.486091        -3.002854
 O         1.880852        -2.351064        -2.855041
 C         0.606767        -1.634893        -2.819958
 C         0.928696        -0.300585        -2.180289
 H        -0.050555         1.245458         0.363211
 H        -0.592623        -0.390884         0.296184
 H         0.536147        -0.251953         1.494930
 H         3.498753         0.457191        -0.340190
 H         2.604391         0.831105        -3.101274
 H         3.212540        -1.484978        -4.099274
 H         3.917746        -1.863531        -2.451909
 H         0.274944        -1.507428        -3.914327
 H        -0.037051        -2.319731        -2.368241
 H         0.372733         0.557771        -2.540548
