19
Iteration:  3932
 C         0.141708         0.305431         0.312295
 C         1.245650        -0.199091        -0.590030
 O         2.039532        -1.420556        -0.258016
 C         2.743900        -0.274543        -0.595637
 C         2.828064        -0.310219        -2.199622
 C         2.875105        -1.699712        -2.910408
 O         1.733551        -2.018703        -3.614646
 C         0.573295        -1.431686        -2.895688
 C         1.168455        -0.178745        -2.118109
 H        -0.613621        -0.373670         0.274341
 H         0.430939         0.536147         1.336522
 H        -0.267048         1.235062        -0.215537
 H         3.498678         0.110473         0.132609
 H         3.407657         0.461582        -2.694703
 H         3.726604        -1.676488        -3.614035
 H         3.011629        -2.442043        -2.212284
 H        -0.231585        -1.184849        -3.649341
 H        -0.001271        -2.110445        -2.223037
 H         0.704083         0.808425        -2.444942
