19
Iteration:  3956charge 0 multiplicity 1
 C         0.305954         0.337889         0.371839
 C         1.181272        -0.237906        -0.644431
 O         1.842453        -1.435079        -0.246300
 C         2.722367        -0.354914        -0.706818
 C         2.649469        -0.323529        -2.241044
 C         3.008014        -1.664961        -2.862372
 O         1.792933        -1.938001        -3.570052
 C         0.658303        -1.432568        -2.880385
 C         1.150091        -0.187791        -2.165184
 H        -0.183848        -0.482784         0.820848
 H         0.795813         0.956714         1.120652
 H        -0.338012         1.036431        -0.151090
 H         3.527500        -0.087581        -0.132658
 H         3.082964         0.574764        -2.633521
 H         3.804704        -1.689237        -3.530219
 H         3.105923        -2.433935        -2.166308
 H        -0.227442        -1.383537        -3.536889
 H         0.281644        -2.035532        -2.007851
 H         0.819353         0.754690        -2.423864
