19
Iteration:  4497
 C         0.179664         0.432652         0.284301
 C         1.218929        -0.275504        -0.619579
 O         1.766174        -1.509958        -0.205743
 C         2.713012        -0.559843        -0.552705
 C         2.795429        -0.427536        -2.116738
 C         2.983460        -1.509091        -3.146424
 O         1.752695        -2.098713        -3.279605
 C         0.688610        -1.228012        -3.066016
 C         1.259303        -0.135340        -2.187134
 H         0.698734         0.542444         1.166824
 H        -0.096056         1.470827        -0.036831
 H        -0.739622        -0.123081         0.433998
 H         3.349370        -0.022308         0.287544
 H         3.440424         0.458091        -2.287822
 H         3.370733        -1.065872        -4.079879
 H         3.605843        -2.387345        -2.841508
 H         0.295795        -0.843389        -4.129284
 H        -0.083668        -1.721075        -2.433762
 H         0.734990         0.721559        -2.686658
