19
Iteration:  2778
 C         0.383146         0.160870         0.401775
 C         1.185390        -0.311770        -0.696839
 O         2.340929        -1.225546        -0.325392
 C         2.568578         0.105624        -0.887528
 C         2.463286        -0.106781        -2.440719
 C         2.960040        -1.558055        -2.957280
 O         1.781648        -2.378774        -2.876502
 C         0.603063        -1.609898        -2.968613
 C         0.947021        -0.313604        -2.215698
 H        -0.144511         1.238679         0.197954
 H        -0.414982        -0.631691         0.455318
 H         0.930725         0.329044         1.274132
 H         2.990666         0.817419        -0.277095
 H         2.791295         0.782939        -2.980475
 H         3.124150        -1.339108        -3.989820
 H         3.811691        -2.074955        -2.519328
 H         0.317075        -1.309928        -3.955508
 H        -0.174519        -2.236523        -2.542030
 H         0.435613         0.561995        -2.472896
