19
Iteration:   428charge 0 multiplicity 1
 C         0.348705         0.618667         0.414433
 C         1.118359        -0.209797        -0.553239
 O         2.126895        -1.128900        -0.141420
 C         2.555946         0.029573        -0.805143
 C         2.473597        -0.301295        -2.328388
 C         2.965823        -1.505348        -3.128925
 O         1.812138        -2.161396        -3.670415
 C         0.841658        -2.043138        -2.597046
 C         0.960613        -0.593499        -2.094646
 H         0.254054         1.769738         0.184002
 H        -0.612364         0.228417         0.495257
 H         0.953363         0.520744         1.381021
 H         3.306554         0.787564        -0.341344
 H         2.646494         0.666661        -2.841218
 H         3.649815        -1.163080        -4.005754
 H         3.389608        -2.274393        -2.493169
 H        -0.153954        -2.284090        -3.075691
 H         1.026129        -2.793078        -1.822037
 H         0.283764         0.118279        -2.615976
