19
Iteration:   350
 C         0.212777         0.243656         0.365090
 C         1.180636        -0.135028        -0.682677
 O         2.251157        -1.085625        -0.175118
 C         2.637973         0.026540        -0.885027
 C         2.514525        -0.246871        -2.404338
 C         2.944899        -1.603785        -3.012363
 O         1.776743        -2.225122        -3.413809
 C         0.689635        -1.772405        -2.570808
 C         1.038096        -0.451676        -2.172662
 H         0.176459         1.407364         0.324417
 H        -0.705861        -0.264428         0.306393
 H         0.511420        -0.109534         1.426615
 H         3.258019         0.861894        -0.516390
 H         2.854830         0.708320        -2.876877
 H         3.555244        -1.379564        -3.977851
 H         3.625571        -2.254178        -2.447005
 H        -0.231778        -1.770457        -3.278452
 H         0.411118        -2.453096        -1.761101
 H         0.427866         0.377340        -2.657617
