19
Iteration:  4818
 C         0.191861         0.398472         0.188333
 C         1.250836        -0.204923        -0.609808
 O         1.774645        -1.553008        -0.295592
 C         2.748509        -0.582916        -0.572757
 C         2.782967        -0.314984        -2.114396
 C         3.007011        -1.453242        -3.079307
 O         1.746492        -2.190043        -3.257157
 C         0.644661        -1.257129        -3.014616
 C         1.235511        -0.115038        -2.136265
 H         0.047092        -0.074739         1.259384
 H         0.360245         1.432484         0.317914
 H        -0.822247         0.272151        -0.344194
 H         3.429579        -0.341027         0.375272
 H         3.300311         0.547182        -2.376016
 H         3.292059        -1.171054        -4.066170
 H         3.682762        -2.156099        -2.520497
 H         0.190716        -0.702137        -3.960881
 H        -0.195842        -1.611127        -2.463037
 H         0.982415         0.906801        -2.539535
