19
Iteration:  3892
 C         0.187569         0.220472         0.270980
 C         1.267122        -0.175507        -0.633635
 O         2.045739        -1.325266        -0.090643
 C         2.780831        -0.295884        -0.682501
 C         2.707342        -0.343424        -2.230512
 C         2.917148        -1.751414        -2.889081
 O         1.710675        -1.951079        -3.588078
 C         0.546444        -1.399362        -2.947656
 C         1.153998        -0.173296        -2.152358
 H        -0.827878         0.020848        -0.359113
 H         0.059755        -0.407673         1.176238
 H         0.256275         1.207022         0.641393
 H         3.469577         0.201155        -0.133750
 H         3.378950         0.438996        -2.573151
 H         3.676040        -1.921811        -3.627647
 H         3.095270        -2.563698        -2.003546
 H        -0.112637        -1.292679        -3.791674
 H         0.285601        -2.188878        -2.262656
 H         0.837082         0.832245        -2.266689
