19
Iteration:  2308
 C         0.452309         0.542819         0.490276
 C         1.177902        -0.198825        -0.588299
 O         1.919568        -1.329615        -0.210487
 C         2.660536        -0.135219        -0.923601
 C         2.404369        -0.123210        -2.456100
 C         2.936638        -1.264749        -3.329686
 O         2.074758        -2.378607        -2.959972
 C         0.714297        -1.905416        -2.775774
 C         0.863480        -0.443917        -2.189528
 H         0.247148         1.597491         0.279800
 H        -0.486840        -0.044986         0.700667
 H         1.131273         0.651915         1.337253
 H         3.423981         0.314385        -0.257187
 H         2.679047         0.829288        -2.892642
 H         3.021236        -0.955394        -4.454363
 H         3.958850        -1.537247        -3.007113
 H         0.168508        -1.766955        -3.817007
 H         0.208796        -2.762206        -2.332939
 H         0.171189         0.208499        -2.772134
