19
Iteration:  4364charge 0 multiplicity 1
 C         0.227551         0.455858         0.219983
 C         1.193634        -0.268526        -0.627815
 O         1.791390        -1.440308        -0.071685
 C         2.748437        -0.424814        -0.548019
 C         2.770251        -0.441992        -2.102310
 C         2.967033        -1.678871        -2.963973
 O         1.742314        -1.802293        -3.825378
 C         0.675077        -1.450258        -2.879220
 C         1.255443        -0.256804        -2.104892
 H         0.510614         0.701365         1.221549
 H        -0.185077         1.374000        -0.290848
 H        -0.638671        -0.125758         0.384743
 H         3.422054        -0.027862         0.170098
 H         3.198119         0.564935        -2.385996
 H         3.898487        -1.772006        -3.537973
 H         2.934190        -2.505225        -2.175401
 H        -0.278913        -1.103745        -3.427899
 H         0.534562        -2.243154        -2.167486
 H         0.957390         0.678900        -2.606066
