19
Iteration:   581
 C         0.369055         0.147899         0.446946
 C         1.228656        -0.306452        -0.710114
 O         2.362750        -1.145873        -0.303831
 C         2.610540         0.064080        -0.975154
 C         2.416403        -0.102516        -2.516384
 C         2.899445        -1.530604        -2.902587
 O         1.758115        -2.378823        -2.787128
 C         0.618074        -1.589719        -3.021357
 C         0.981463        -0.361062        -2.240636
 H        -0.006489         1.162082         0.349059
 H        -0.487702        -0.507379         0.519641
 H         0.750082        -0.176019         1.410888
 H         3.032796         0.800725        -0.337419
 H         2.752904         0.729993        -3.049626
 H         3.168630        -1.579371        -3.908835
 H         3.788179        -1.947487        -2.407995
 H         0.472027        -1.421861        -4.163050
 H        -0.285155        -2.122404        -2.728003
 H         0.352842         0.469009        -2.415656
