19
Iteration:  3503charge 0 multiplicity 1
 C         0.293630         0.530302         0.417192
 C         1.167281        -0.289312        -0.557495
 O         1.974888        -1.305234        -0.137792
 C         2.646776        -0.186377        -0.682583
 C         2.612976        -0.269814        -2.306341
 C         3.013269        -1.599019        -3.097518
 O         1.780021        -2.034241        -3.664974
 C         0.743842        -1.748919        -2.766892
 C         1.040323        -0.407587        -2.128394
 H        -0.668785         0.777213        -0.030958
 H         0.236767         0.108383         1.470253
 H         0.789574         1.446090         0.718274
 H         3.262940         0.335075         0.072562
 H         2.875997         0.662391        -2.818732
 H         3.680892        -1.511767        -3.968601
 H         3.418230        -2.331923        -2.366722
 H        -0.122595        -1.531334        -3.524681
 H         0.513592        -2.504555        -1.949272
 H         0.660028         0.501365        -2.534530
