19
Iteration:  4447
 C         0.190826         0.417403         0.445389
 C         1.140631        -0.212175        -0.678106
 O         1.897179        -1.543739        -0.413951
 C         2.629376        -0.393319        -0.684765
 C         2.787467        -0.344534        -2.171033
 C         3.031214        -1.689580        -2.772759
 O         1.778660        -2.082854        -3.447189
 C         0.633731        -1.256006        -3.029570
 C         1.206028        -0.096264        -2.136853
 H         0.632316        -0.094245         1.434244
 H         0.344307         1.466392         0.492003
 H        -0.923829         0.215583         0.245726
 H         3.425305        -0.384883        -0.012740
 H         3.304229         0.527296        -2.524671
 H         3.727362        -1.535891        -3.630365
 H         3.212177        -2.573038        -2.187203
 H         0.207563        -0.842103        -3.881285
 H        -0.154556        -1.810121        -2.478432
 H         0.921257         0.817722        -2.587144
