19
Iteration:  1223charge 0 multiplicity 1
 C         0.329126         0.305565         0.395490
 C         1.219452        -0.251297        -0.655544
 O         2.176561        -1.242115        -0.205339
 C         2.663727         0.048195        -0.820079
 C         2.521584        -0.221095        -2.424672
 C         2.857815        -1.382962        -3.240651
 O         1.884295        -2.444850        -2.891801
 C         0.658616        -1.673834        -2.942565
 C         0.965817        -0.405170        -2.158859
 H         0.441541         1.345129         0.365851
 H        -0.748149         0.105392         0.195540
 H         0.650052         0.127418         1.309437
 H         3.393174         0.737540        -0.104132
 H         2.579465         0.683475        -2.998320
 H         2.793797        -1.174515        -4.283436
 H         3.885651        -1.810830        -3.050370
 H         0.363169        -1.338909        -3.971366
 H        -0.203082        -2.239001        -2.559621
 H         0.232792         0.382264        -2.399262
