19
Iteration:  1934charge 0 multiplicity 1
 C         0.177840         0.098786         0.420444
 C         1.223822        -0.225095        -0.673643
 O         2.233385        -1.185539        -0.342495
 C         2.685228         0.078987        -0.922331
 C         2.519234        -0.115452        -2.490514
 C         2.946460        -1.522397        -3.038479
 O         1.810592        -2.423016        -2.912954
 C         0.649219        -1.619038        -2.771835
 C         1.013570        -0.267695        -2.222748
 H        -0.032794         1.126886         0.264365
 H        -0.666853        -0.509915         0.399420
 H         0.663576         0.005281         1.433034
 H         3.610286         0.547179        -0.313673
 H         2.786940         0.818445        -3.147576
 H         3.112960        -1.339434        -4.167823
 H         3.821178        -2.113529        -2.574965
 H         0.052775        -1.426617        -3.729758
 H        -0.089155        -2.099975        -2.140281
 H         0.406544         0.461443        -2.766416
