19
Iteration:  1108charge 0 multiplicity 1
 C         0.189312         0.307932         0.329763
 C         1.267935        -0.089724        -0.609825
 O         2.250798        -1.113198        -0.197439
 C         2.758168         0.065721        -0.798664
 C         2.501998        -0.309316        -2.387603
 C         2.936812        -1.642639        -2.977560
 O         1.725131        -2.143331        -3.577373
 C         0.623813        -1.866713        -2.558841
 C         1.033592        -0.424445        -2.128934
 H        -0.745830         0.729960        -0.233323
 H        -0.242319        -0.631076         0.674243
 H         0.412587         1.162849         1.099478
 H         3.504714         0.671350        -0.338532
 H         2.702668         0.638133        -2.960392
 H         3.724529        -1.526428        -3.806720
 H         3.475716        -2.247511        -2.228204
 H        -0.260534        -2.119802        -3.134614
 H         0.631742        -2.571108        -1.751083
 H         0.395321         0.390396        -2.582177
