19
Iteration:  2278charge 0 multiplicity 1
 C         0.331064         0.513396         0.427651
 C         1.191625        -0.199233        -0.589455
 O         2.123947        -1.273972        -0.182200
 C         2.667937        -0.093634        -0.836493
 C         2.404096        -0.216660        -2.396186
 C         2.920112        -1.357926        -3.292040
 O         1.992529        -2.416329        -3.102227
 C         0.699360        -1.803751        -2.776101
 C         0.879470        -0.427859        -2.185941
 H        -0.285252         1.193592        -0.060654
 H        -0.439224        -0.239370         0.919761
 H         0.890034         0.992770         1.182643
 H         3.583748         0.642233        -0.264432
 H         2.693379         0.750520        -2.810170
 H         3.018012        -0.883650        -4.229470
 H         3.889514        -1.689585        -2.915672
 H         0.134287        -1.656937        -3.684841
 H         0.234558        -2.549963        -2.264339
 H         0.245888         0.371720        -2.758768
