19
Iteration:  3696
 C         0.285496         0.374800         0.452324
 C         1.194913        -0.198654        -0.643294
 O         2.019055        -1.339860        -0.137866
 C         2.702598        -0.179106        -0.705663
 C         2.654543        -0.301190        -2.237218
 C         2.935689        -1.748309        -2.906551
 O         1.777200        -1.940011        -3.677873
 C         0.622929        -1.618975        -2.899429
 C         1.087229        -0.284001        -2.183449
 H         0.836234         0.120030         1.431479
 H         0.155894         1.469740         0.347179
 H        -0.699897        -0.052041         0.499181
 H         3.491588         0.184073         0.043152
 H         3.122330         0.526067        -2.775741
 H         3.730225        -1.660835        -3.609618
 H         3.158877        -2.451204        -2.157345
 H        -0.156724        -1.468042        -3.609623
 H         0.186168        -2.518051        -2.233732
 H         0.579129         0.672858        -2.646525
