19
Iteration:  3020
 C         0.191087         0.351808         0.359227
 C         1.248238        -0.143273        -0.647054
 O         2.168682        -1.095304        -0.017971
 C         2.718976        -0.038434        -0.831398
 C         2.553776        -0.315121        -2.329929
 C         2.955395        -1.537049        -3.058461
 O         1.732808        -2.116311        -3.613412
 C         0.721465        -1.893962        -2.653782
 C         0.968406        -0.472374        -2.157277
 H        -0.220327         1.316821        -0.009797
 H        -0.485891        -0.498536         0.547593
 H         0.710622         0.511132         1.312161
 H         3.525004         0.648683        -0.275713
 H         2.706821         0.542581        -2.981982
 H         3.633927        -1.263780        -3.897464
 H         3.520391        -2.234776        -2.308331
 H        -0.287746        -1.933433        -3.236393
 H         0.704979        -2.550641        -1.814523
 H         0.427704         0.308943        -2.645135
