19
Iteration:  1931charge 0 multiplicity 1
 C         0.185440         0.083928         0.435776
 C         1.221326        -0.206195        -0.673254
 O         2.229893        -1.172640        -0.369225
 C         2.685836         0.056488        -0.906956
 C         2.509173        -0.124660        -2.498810
 C         2.947061        -1.527985        -3.038109
 O         1.805954        -2.420803        -2.901625
 C         0.649490        -1.617252        -2.775620
 C         1.027853        -0.258728        -2.218344
 H        -0.140587         1.236816         0.257059
 H        -0.656392        -0.619315         0.338132
 H         0.671911         0.020609         1.360326
 H         3.614062         0.496098        -0.395556
 H         2.793368         0.824923        -3.115292
 H         3.129821        -1.376388        -4.135581
 H         3.839639        -1.970077        -2.499770
 H         0.067271        -1.456374        -3.735783
 H        -0.110289        -2.187423        -2.113467
 H         0.456912         0.529119        -2.742743
