19
Iteration:  1677charge 0 multiplicity 1
 C         0.282645         0.373845         0.382997
 C         1.239783        -0.223257        -0.537844
 O         2.304360        -1.100647        -0.117926
 C         2.654825         0.120841        -0.880817
 C         2.476394        -0.290145        -2.334150
 C         2.912892        -1.682094        -2.912810
 O         1.789910        -2.073013        -3.669594
 C         0.646751        -1.870181        -2.790440
 C         0.975119        -0.516404        -2.062517
 H        -0.554173         1.020225        -0.187926
 H        -0.230103        -0.431246         0.937061
 H         0.763757         0.904326         1.219732
 H         3.188520         1.015673        -0.440071
 H         2.617325         0.486417        -3.106075
 H         3.858991        -1.825191        -3.548397
 H         2.913402        -2.287604        -1.940093
 H        -0.292508        -1.827594        -3.402859
 H         0.520220        -2.671105        -2.008005
 H         0.403014         0.325249        -2.536290
