19
Iteration:   912
 C         0.292221         0.101872         0.500932
 C         1.232301        -0.221264        -0.632030
 O         2.391666        -1.116185        -0.297666
 C         2.634910         0.114412        -0.929315
 C         2.478053        -0.146733        -2.501268
 C         2.881945        -1.562527        -2.917588
 O         1.768879        -2.412224        -3.034042
 C         0.578400        -1.616120        -2.981285
 C         0.953177        -0.345134        -2.193119
 H        -0.572380         0.686322         0.105607
 H         0.006461        -0.711123         1.108674
 H         0.834954         0.783968         1.176491
 H         3.406319         0.657173        -0.342001
 H         2.864328         0.583724        -3.217953
 H         3.376578        -1.619554        -3.885101
 H         3.404014        -2.013440        -2.052445
 H         0.400549        -1.423046        -4.112662
 H        -0.235131        -2.088649        -2.423220
 H         0.288007         0.576569        -2.431954
