19
Iteration:  3444
 C         0.203945         0.365956         0.330995
 C         1.239729        -0.214331        -0.561431
 O         2.078289        -1.261230        -0.063904
 C         2.704737        -0.068735        -0.732022
 C         2.701347        -0.321395        -2.288040
 C         2.906973        -1.652798        -3.010576
 O         1.696156        -2.009525        -3.730943
 C         0.698303        -1.696160        -2.717027
 C         1.089235        -0.392679        -2.119667
 H        -0.310111         1.332484        -0.136396
 H        -0.549368        -0.368404         0.232433
 H         0.553128         0.656403         1.296106
 H         3.348151         0.380006        -0.017496
 H         3.029953         0.519709        -2.904035
 H         3.619994        -1.449524        -3.826901
 H         3.240643        -2.559048        -2.344583
 H        -0.244688        -1.648620        -3.118965
 H         0.686159        -2.435890        -1.914156
 H         0.650803         0.545218        -2.613225
