19
Iteration:   277charge 0 multiplicity 1
 C         0.326387         0.266448         0.407003
 C         1.258555        -0.238240        -0.658692
 O         2.193228        -1.271614        -0.276855
 C         2.653166         0.020855        -0.870826
 C         2.533159        -0.104547        -2.387155
 C         2.925721        -1.437721        -3.018061
 O         1.777587        -2.403973        -3.135836
 C         0.633182        -1.719749        -2.788637
 C         0.963670        -0.340152        -2.226007
 H        -0.473726         0.704855        -0.287438
 H         0.051643        -0.389533         1.188815
 H         0.699586         1.194945         0.944617
 H         3.227476         0.897030        -0.159780
 H         2.884862         0.786709        -2.938682
 H         3.465567        -1.441183        -4.002541
 H         3.639694        -1.937829        -2.399093
 H         0.056827        -1.489740        -3.689376
 H         0.052145        -2.443037        -2.179611
 H         0.287668         0.427553        -2.592230
