19
Iteration:  4764charge 0 multiplicity 1
 C         0.272333         0.433957         0.351415
 C         1.148659        -0.245892        -0.624223
 O         1.759268        -1.578772        -0.303696
 C         2.656994        -0.473882        -0.567931
 C         2.707675        -0.332691        -2.067643
 C         2.978951        -1.553078        -3.054668
 O         1.771194        -2.167794        -3.229729
 C         0.747648        -1.247003        -3.181845
 C         1.234722        -0.078675        -2.191491
 H         1.045345         0.564975         1.295814
 H        -0.140291         1.395794         0.005912
 H        -0.596945        -0.293267         0.686552
 H         3.471547        -0.413614         0.354950
 H         3.328944         0.534019        -2.321376
 H         3.268275        -1.196110        -4.112348
 H         3.804265        -2.312962        -2.835473
 H         0.586724        -0.730829        -4.168002
 H        -0.168361        -1.683108        -2.913317
 H         0.882468         0.906131        -2.646171
