19
Iteration:  3382charge 0 multiplicity 1
 C         0.314285         0.393778         0.443013
 C         1.177268        -0.233005        -0.691699
 O         2.136055        -1.404652        -0.371962
 C         2.630862        -0.118448        -0.792059
 C         2.585338        -0.161969        -2.306290
 C         3.028176        -1.550226        -2.849779
 O         1.828408        -2.236093        -3.398999
 C         0.578844        -1.603825        -2.793265
 C         0.966904        -0.258592        -2.195687
 H         0.727828         1.404957         0.838245
 H        -0.787360         0.604111         0.232768
 H         0.312261        -0.321667         1.315788
 H         3.425448         0.217083        -0.073771
 H         2.946573         0.686815        -2.862245
 H         3.775800        -1.420438        -3.625889
 H         3.496633        -2.142037        -2.104187
 H        -0.340851        -1.575730        -3.560822
 H         0.186177        -2.449813        -2.148079
 H         0.395019         0.505333        -2.689594
