19
Iteration:  1923
 C         0.217400         0.083117         0.405792
 C         1.217023        -0.117579        -0.670140
 O         2.215106        -1.173151        -0.427583
 C         2.694810        -0.008127        -0.920610
 C         2.512851        -0.159812        -2.466883
 C         2.928370        -1.508535        -3.040054
 O         1.817607        -2.403228        -2.866260
 C         0.596154        -1.630387        -2.777436
 C         1.015527        -0.245983        -2.214766
 H        -0.444268         0.924123         0.381661
 H        -0.449986        -0.705377         0.295922
 H         0.707911         0.002563         1.410209
 H         3.640049         0.576558        -0.409411
 H         2.894929         0.771064        -3.095479
 H         3.348746        -1.569509        -4.126294
 H         3.815769        -1.694906        -2.328123
 H         0.218281        -1.594730        -3.849938
 H         0.012816        -2.262525        -2.129275
 H         0.496060         0.695264        -2.462362
