19
Iteration:   236charge 0 multiplicity 1
 C         0.184324         0.357181         0.452478
 C         1.235718        -0.203750        -0.533762
 O         2.206520        -1.193623        -0.038592
 C         2.722929        -0.082586        -0.887475
 C         2.565638        -0.246034        -2.474312
 C         2.864297        -1.403427        -3.307769
 O         1.831843        -2.396806        -3.027199
 C         0.715628        -1.700775        -2.918550
 C         0.953070        -0.363373        -2.177709
 H        -0.700138         0.529659        -0.077174
 H        -0.022485        -0.502944         1.313994
 H         0.415600         1.269168         0.899770
 H         3.509730         0.503986        -0.329680
 H         2.852850         0.689969        -2.980280
 H         2.907708        -1.150782        -4.350491
 H         3.863077        -2.002583        -3.032513
 H         0.375782        -1.499601        -4.034332
 H        -0.233537        -2.243325        -2.651720
 H         0.473385         0.432856        -2.748273
