19
Iteration:  2478charge 0 multiplicity 1
 C         0.341155         0.099776         0.507499
 C         1.179996        -0.241922        -0.690463
 O         2.303245        -1.162782        -0.379714
 C         2.611589         0.130504        -0.857216
 C         2.516461        -0.127974        -2.458425
 C         2.907661        -1.575680        -2.938128
 O         1.844050        -2.414524        -2.962796
 C         0.552341        -1.632070        -2.954417
 C         0.953209        -0.299853        -2.262378
 H        -0.444425         0.811552         0.121619
 H        -0.053857        -0.809247         0.950247
 H         0.954534         0.736504         1.298381
 H         3.133710         0.772612        -0.349758
 H         2.719229         0.756216        -3.111009
 H         3.591510        -1.571153        -3.858791
 H         3.545520        -1.847970        -2.050282
 H         0.131029        -1.306784        -4.020277
 H        -0.131016        -2.186157        -2.330218
 H         0.401913         0.515611        -2.554745
