19
Iteration:  1809
 C         0.266510         0.410339         0.475437
 C         1.162460        -0.265420        -0.644949
 O         2.228980        -1.181896        -0.207417
 C         2.683349        -0.003427        -0.844572
 C         2.470528        -0.221481        -2.319041
 C         2.961153        -1.445697        -3.148500
 O         1.891695        -2.396224        -3.234030
 C         0.614544        -1.771998        -2.853702
 C         0.970840        -0.410754        -2.145242
 H         0.012929         1.468870         0.165962
 H        -0.631730        -0.103717         0.742235
 H         0.931029         0.542197         1.237237
 H         3.180539         0.669362        -0.331864
 H         2.655925         0.634842        -2.917338
 H         3.023262        -1.130322        -4.241710
 H         3.848425        -1.944648        -2.775963
 H        -0.078652        -1.546565        -3.689096
 H         0.086610        -2.434144        -2.064376
 H         0.444300         0.457692        -2.520462
