19
Iteration:   224charge 0 multiplicity 1
 C         0.231041         0.348917         0.379051
 C         1.244044        -0.211569        -0.613972
 O         2.170525        -1.202786        -0.083002
 C         2.699564        -0.077100        -0.822112
 C         2.488357        -0.141744        -2.414750
 C         2.821403        -1.452924        -3.285977
 O         1.894582        -2.475795        -3.007535
 C         0.655046        -1.652627        -2.934376
 C         1.054727        -0.369916        -2.173956
 H        -0.767927         0.510668        -0.019462
 H         0.114458        -0.441836         1.205875
 H         0.629011         1.215728         0.871641
 H         3.605949         0.452912        -0.286564
 H         2.786758         0.786468        -2.939399
 H         2.662968        -1.140748        -4.309991
 H         3.881927        -1.827496        -3.144974
 H         0.379895        -1.251041        -3.963297
 H        -0.055023        -2.311394        -2.408051
 H         0.344542         0.410002        -2.377351
