19
Iteration:  4844charge 0 multiplicity 1
 C         0.176833         0.359288         0.314554
 C         1.188248        -0.269924        -0.641768
 O         1.714394        -1.603931        -0.452968
 C         2.694263        -0.387881        -0.610083
 C         2.821326        -0.344467        -2.157455
 C         3.035581        -1.585786        -2.997924
 O         1.775438        -2.116077        -3.255305
 C         0.711461        -1.244088        -2.925379
 C         1.231658        -0.055536        -2.166983
 H         0.113776        -0.088486         1.245674
 H         0.628602         1.485227         0.510361
 H        -0.820035         0.470311        -0.066020
 H         3.283033        -0.312098         0.207516
 H         3.427859         0.527386        -2.695635
 H         3.451172        -1.337378        -3.961181
 H         3.599750        -2.361671        -2.485401
 H         0.113389        -0.919102        -3.736794
 H         0.055606        -1.651531        -2.153118
 H         0.934548         0.907742        -2.546923
