19
Iteration:  4006
 C         0.363728         0.548152         0.462080
 C         1.159137        -0.233563        -0.589101
 O         1.718279        -1.452861        -0.155279
 C         2.656480        -0.450127        -0.648402
 C         2.680133        -0.372590        -2.186559
 C         3.052185        -1.578348        -3.021993
 O         1.850545        -1.924316        -3.732308
 C         0.724684        -1.576620        -2.886202
 C         1.034261        -0.274915        -2.151910
 H         0.245148        -0.105703         1.362470
 H         1.039470         1.403003         0.731025
 H        -0.446767         1.225388         0.096488
 H         3.420201        -0.101816         0.063606
 H         3.325873         0.488207        -2.376822
 H         3.769280        -1.315122        -3.885530
 H         3.499231        -2.504190        -2.435696
 H        -0.125389        -1.310104        -3.518390
 H         0.405111        -2.344439        -2.208075
 H         0.650935         0.724314        -2.605993
