19
Iteration:   289
 C         0.321462         0.304703         0.412122
 C         1.214480        -0.255085        -0.655557
 O         2.223924        -1.268656        -0.375232
 C         2.636409        -0.011948        -0.898429
 C         2.505869        -0.102661        -2.427532
 C         3.012466        -1.530431        -2.936527
 O         1.859405        -2.327308        -3.134356
 C         0.520518        -1.708881        -2.777738
 C         0.944233        -0.305076        -2.203063
 H        -0.626943         0.697522         0.004537
 H        -0.128849        -0.553757         0.984728
 H         0.820120         1.045577         1.024513
 H         3.410909         0.663006        -0.260785
 H         2.877767         0.767999        -2.986327
 H         3.505562        -1.380869        -3.897031
 H         3.633793        -1.993523        -2.141595
 H        -0.153885        -1.799641        -3.596224
 H         0.129728        -2.230046        -1.864280
 H         0.286801         0.500165        -2.507924
