19
Iteration:  4838
 C         0.195698         0.394031         0.285739
 C         1.181431        -0.261180        -0.629278
 O         1.714082        -1.626141        -0.439547
 C         2.702666        -0.367616        -0.618794
 C         2.843918        -0.320892        -2.162762
 C         3.024766        -1.594033        -3.003201
 O         1.756765        -2.124970        -3.248338
 C         0.711598        -1.250406        -2.929036
 C         1.239836        -0.057981        -2.135929
 H         0.047853        -0.151107         1.301066
 H         0.482682         1.340722         0.425293
 H        -0.809098         0.434982        -0.221627
 H         3.498323        -0.316556         0.261677
 H         3.417826         0.490745        -2.462959
 H         3.527143        -1.063440        -3.922657
 H         3.565389        -2.522775        -2.691336
 H         0.071473        -0.909620        -3.833679
 H        -0.011275        -1.841710        -2.277227
 H         0.815592         0.914962        -2.485715
