19
Iteration:  3112charge 0 multiplicity 1
 C         0.206228         0.237834         0.467585
 C         1.221215        -0.170954        -0.592502
 O         2.115993        -1.197468        -0.294513
 C         2.736886        -0.002124        -0.893330
 C         2.577640        -0.201831        -2.424072
 C         3.093103        -1.525707        -3.038291
 O         1.782258        -2.326233        -3.266138
 C         0.601630        -1.684510        -2.767407
 C         0.953302        -0.355460        -2.098033
 H        -0.719118         0.026989        -0.042668
 H         0.401228        -0.077509         1.532881
 H         0.183795         1.446206         0.583434
 H         3.367594         0.532143        -0.301449
 H         2.825133         0.723557        -3.017953
 H         3.500308        -1.416194        -4.049672
 H         3.747759        -2.305653        -2.433674
 H         0.092556        -1.440850        -3.640462
 H         0.049632        -2.387482        -2.187158
 H         0.448796         0.580813        -2.549415
