19
Iteration:  4592
 C         0.334916         0.395998         0.467480
 C         1.220966        -0.155736        -0.665062
 O         1.661995        -1.533925        -0.477819
 C         2.650507        -0.423420        -0.601464
 C         2.737000        -0.320032        -2.103564
 C         3.085251        -1.534524        -2.982991
 O         1.792490        -2.247348        -3.206447
 C         0.682235        -1.294731        -3.106642
 C         1.123645        -0.126621        -2.226087
 H         0.673528        -0.057823         1.427093
 H         0.376312         1.579278         0.697913
 H        -0.712174         0.212476         0.294453
 H         3.497617        -0.327422         0.195759
 H         3.308170         0.654214        -2.466500
 H         3.556884        -1.107934        -3.947963
 H         3.807792        -2.259428        -2.554309
 H         0.434478        -0.860494        -4.122641
 H        -0.189080        -1.887006        -2.613569
 H         0.891344         0.920910        -2.576099
