19
Iteration:  4792
 C         0.215407         0.402993         0.267097
 C         1.178114        -0.279049        -0.556536
 O         1.730980        -1.558332        -0.143408
 C         2.658205        -0.498204        -0.632619
 C         2.843971        -0.356812        -2.118655
 C         3.032711        -1.495372        -3.205955
 O         1.762476        -2.181649        -3.214594
 C         0.689407        -1.219781        -3.114793
 C         1.246611        -0.093297        -2.154598
 H         0.374115         0.223381         1.261257
 H         0.155255         1.481866         0.048025
 H        -0.720291        -0.032686         0.029135
 H         3.313294        -0.271309         0.098819
 H         3.535554         0.533286        -2.250362
 H         3.141572        -1.148271        -4.309749
 H         3.771118        -2.225701        -2.962837
 H         0.462587        -0.673820        -4.039384
 H        -0.308027        -1.614033        -2.731189
 H         0.944720         0.897339        -2.440744
