19
Iteration:  3163charge 0 multiplicity 1
 C         0.206251         0.298239         0.314786
 C         1.290359        -0.263872        -0.661333
 O         2.146148        -1.327416        -0.221766
 C         2.694764        -0.065617        -0.839790
 C         2.614359        -0.172477        -2.356583
 C         2.932507        -1.452526        -3.178122
 O         1.847652        -2.286495        -3.040734
 C         0.557207        -1.611231        -2.813815
 C         1.011833        -0.327428        -2.128679
 H        -0.393409        -0.582567         0.642971
 H         0.767100         0.886555         1.042801
 H        -0.591775         0.867808        -0.225702
 H         3.410954         0.467214        -0.262933
 H         2.901548         0.716102        -2.857009
 H         3.087077        -1.233041        -4.258097
 H         3.736905        -2.058101        -2.801518
 H         0.104021        -1.475045        -3.898602
 H        -0.063186        -2.303365        -2.218213
 H         0.407522         0.543367        -2.219322
