19
Iteration:  3717
 C         0.338778         0.421903         0.394612
 C         1.231731        -0.164209        -0.605262
 O         1.873914        -1.360595        -0.105821
 C         2.665673        -0.244639        -0.662170
 C         2.699138        -0.372726        -2.211932
 C         2.990791        -1.583582        -3.024798
 O         1.711108        -1.996691        -3.765067
 C         0.694143        -1.595784        -2.822401
 C         1.109221        -0.345257        -2.105895
 H         0.918524         0.711007         1.340516
 H        -0.124409         1.250101        -0.145797
 H        -0.447240        -0.313462         0.689433
 H         3.371669         0.376177         0.017321
 H         2.972317         0.532402        -2.759550
 H         3.803322        -1.584009        -3.722438
 H         3.153310        -2.348219        -2.281852
 H        -0.247081        -1.531723        -3.315256
 H         0.600886        -2.518707        -2.123580
 H         0.823235         0.630178        -2.553009
