19
Iteration:  3747charge 0 multiplicity 1
 C         0.237239         0.614715         0.325198
 C         1.241659        -0.211035        -0.507638
 O         1.875858        -1.468529        -0.161256
 C         2.730529        -0.411955        -0.720511
 C         2.715251        -0.391513        -2.197647
 C         3.007195        -1.511494        -3.131409
 O         1.722446        -1.906335        -3.674161
 C         0.753732        -1.644088        -2.729963
 C         1.053530        -0.348114        -2.088240
 H         0.584170         1.501257         0.776056
 H        -0.488557         1.021251        -0.397920
 H        -0.435091        -0.097066         1.002574
 H         3.576268        -0.033275         0.007980
 H         3.109525         0.616411        -2.547727
 H         3.733412        -1.320527        -3.985221
 H         3.402572        -2.353485        -2.405426
 H        -0.274028        -1.686007        -3.193572
 H         0.716114        -2.403469        -2.026015
 H         0.574196         0.466342        -2.500668
