19
Iteration:  4815charge 0 multiplicity 1
 C         0.172014         0.394418         0.204474
 C         1.248946        -0.200286        -0.631770
 O         1.773887        -1.556333        -0.264498
 C         2.773107        -0.594823        -0.546659
 C         2.767723        -0.343918        -2.152426
 C         2.985930        -1.437359        -3.072766
 O         1.749386        -2.188518        -3.246049
 C         0.671576        -1.230569        -3.035574
 C         1.232412        -0.115544        -2.139344
 H         0.087560        -0.026219         1.216464
 H         0.372271         1.423150         0.244261
 H        -0.791168         0.284768        -0.299836
 H         3.389979        -0.373052         0.313563
 H         3.249369         0.580815        -2.399704
 H         3.388898        -1.088175        -4.122464
 H         3.648512        -2.162172        -2.599075
 H         0.212741        -0.762870        -3.957007
 H        -0.186876        -1.628953        -2.416153
 H         0.976845         0.863722        -2.547657
