19
Iteration:  1093charge 0 multiplicity 1
 C         0.169335         0.433099         0.291114
 C         1.244752        -0.167798        -0.597032
 O         2.292474        -1.124192        -0.069743
 C         2.676370        -0.009877        -0.900913
 C         2.558256        -0.245708        -2.366375
 C         2.916747        -1.599338        -3.020897
 O         1.709670        -2.088648        -3.587376
 C         0.747103        -1.915358        -2.634785
 C         0.956097        -0.503633        -2.060663
 H        -0.506420         0.953736        -0.291467
 H        -0.347015        -0.382712         1.025393
 H         0.615399         1.029898         1.001056
 H         3.481812         0.675723        -0.360727
 H         2.764075         0.562995        -3.057821
 H         3.622651        -1.569710        -3.806085
 H         3.182679        -2.401192        -2.333366
 H        -0.242569        -1.896845        -3.056967
 H         0.809063        -2.710119        -1.811653
 H         0.314839         0.130494        -2.556464
