19
Iteration:  2114
 C         0.269664         0.342929         0.372560
 C         1.227624        -0.296091        -0.584877
 O         2.253050        -1.207842        -0.163073
 C         2.651619        -0.003747        -0.811944
 C         2.490852        -0.199255        -2.396441
 C         2.901947        -1.406696        -3.241304
 O         1.891897        -2.413313        -3.004224
 C         0.630237        -1.694743        -2.880389
 C         0.962424        -0.371892        -2.243614
 H        -0.204320         1.227879         0.050615
 H        -0.552414        -0.494143         0.647961
 H         0.778777         0.573978         1.278397
 H         3.308381         0.741950        -0.129473
 H         2.773512         0.750338        -2.811180
 H         2.826525        -1.153296        -4.336871
 H         3.818301        -1.943525        -2.985048
 H         0.152135        -1.675598        -3.921808
 H        -0.203993        -2.172069        -2.231358
 H         0.331091         0.500492        -2.668629
