19
Iteration:   883
 C         0.377903         0.042495         0.444359
 C         1.246393        -0.248930        -0.651931
 O         2.332117        -1.143358        -0.335563
 C         2.617755         0.170302        -0.969751
 C         2.431747        -0.171634        -2.469351
 C         2.933149        -1.531524        -2.914104
 O         1.752167        -2.419697        -2.834053
 C         0.582535        -1.543789        -3.059802
 C         0.911344        -0.364164        -2.196665
 H        -0.559642         0.683741         0.120703
 H         0.021350        -0.820219         1.037136
 H         1.095740         0.674777         1.182790
 H         3.386439         0.587414        -0.488537
 H         2.743840         0.676489        -3.158934
 H         3.529753        -1.631136        -3.897047
 H         3.677976        -1.955937        -2.226992
 H         0.552407        -1.356881        -4.119466
 H        -0.421197        -1.818912        -2.746246
 H         0.363944         0.605918        -2.401794
