19
Iteration:  4824charge 0 multiplicity 1
 C         0.196206         0.399759         0.197888
 C         1.269020        -0.240750        -0.587402
 O         1.761928        -1.557152        -0.348117
 C         2.697743        -0.524783        -0.588097
 C         2.803810        -0.278980        -2.067573
 C         3.030447        -1.507509        -3.057610
 O         1.727093        -2.180347        -3.268787
 C         0.619622        -1.262463        -2.982290
 C         1.251472        -0.100325        -2.140062
 H         0.059440        -0.069636         1.111060
 H         0.336911         1.518861         0.422016
 H        -0.701794         0.275992        -0.346310
 H         3.420411        -0.339834         0.099834
 H         3.468441         0.633804        -2.340369
 H         3.349143        -1.199491        -4.133446
 H         3.748281        -2.184558        -2.621939
 H         0.306108        -0.830167        -3.883313
 H        -0.255723        -1.852767        -2.512421
 H         0.962694         0.886835        -2.449019
