19
Iteration:  4704
 C         0.216243         0.332296         0.395592
 C         1.218838        -0.183221        -0.672756
 O         1.782300        -1.531737        -0.431062
 C         2.706739        -0.470896        -0.565593
 C         2.769768        -0.296767        -2.144064
 C         3.057981        -1.633909        -2.891647
 O         1.715023        -2.172881        -3.323191
 C         0.615343        -1.226409        -3.039489
 C         1.284976        -0.037434        -2.224300
 H         0.692170         0.499291         1.312771
 H        -0.299442         1.349596         0.130681
 H        -0.515297        -0.438339         0.582294
 H         3.166814        -0.163616         0.286199
 H         3.439326         0.599827        -2.349233
 H         3.516278        -1.149641        -3.728529
 H         3.552951        -2.390239        -2.315275
 H         0.200813        -0.997828        -4.121653
 H        -0.226289        -1.814540        -2.451522
 H         1.016090         0.837990        -2.807173
