19
Iteration:  2649charge 0 multiplicity 1
 C         0.349963         0.573842         0.356061
 C         1.202758        -0.231822        -0.575677
 O         2.063119        -1.324300        -0.221094
 C         2.627375        -0.165687        -0.836910
 C         2.494839        -0.152391        -2.365582
 C         3.007801        -1.309352        -3.238566
 O         1.993624        -2.326830        -3.149271
 C         0.671369        -1.898915        -2.747334
 C         0.867222        -0.429510        -2.124822
 H        -0.158539         1.152301        -0.309714
 H        -0.395876        -0.119553         0.841583
 H         0.819547         1.024433         1.126391
 H         3.419053         0.385876        -0.366366
 H         2.536165         0.797813        -2.783007
 H         2.940833        -0.790140        -4.259891
 H         3.982409        -1.710995        -3.121858
 H        -0.049563        -1.802942        -3.645842
 H         0.219986        -2.651144        -1.961720
 H         0.077829         0.359569        -2.420517
