19
Iteration:   567charge 0 multiplicity 1
 C         0.351581         0.089923         0.428134
 C         1.220380        -0.310893        -0.681052
 O         2.314989        -1.123594        -0.314142
 C         2.602567         0.185299        -0.900933
 C         2.554460        -0.147897        -2.427347
 C         2.936335        -1.567216        -3.029304
 O         1.754168        -2.419348        -2.835126
 C         0.578246        -1.603537        -2.993167
 C         0.924012        -0.351033        -2.202939
 H        -0.007794         1.037296         0.272125
 H        -0.623245        -0.643900         0.581653
 H         1.053968         0.361115         1.254373
 H         3.278766         0.985145        -0.455065
 H         2.687180         0.685585        -3.218566
 H         3.258296        -1.460805        -4.059434
 H         3.606018        -2.074225        -2.322394
 H         0.435169        -1.249142        -4.055631
 H        -0.237607        -2.229014        -2.584330
 H         0.384483         0.606392        -2.560864
