19
Iteration:  2070
 C         0.272671         0.435493         0.435060
 C         1.257064        -0.077652        -0.633654
 O         2.018178        -1.366760        -0.331100
 C         2.716294        -0.227301        -0.872299
 C         2.453994        -0.134600        -2.382730
 C         2.928801        -1.310233        -3.308578
 O         2.000192        -2.397816        -2.971375
 C         0.723601        -1.810230        -2.672590
 C         0.926385        -0.293231        -2.176062
 H        -0.304032         1.039193        -0.178641
 H        -0.444078        -0.435805         0.802848
 H         0.496590         1.138348         1.188162
 H         3.691411         0.172441        -0.377377
 H         2.661344         0.850150        -2.726206
 H         2.791856        -1.046257        -4.452482
 H         3.939773        -1.640348        -3.053728
 H        -0.020926        -1.834443        -3.536332
 H         0.242291        -2.532133        -1.919863
 H         0.261766         0.398290        -2.795234
