19
Iteration:   201
 C         0.306311         0.368009         0.348789
 C         1.223255        -0.267443        -0.656920
 O         2.162373        -1.311856        -0.297308
 C         2.652558        -0.073348        -0.860638
 C         2.559054        -0.205356        -2.370462
 C         2.918299        -1.364940        -3.181291
 O         1.858557        -2.315245        -2.945617
 C         0.608559        -1.726926        -2.756537
 C         0.951468        -0.343451        -2.213649
 H        -0.648705         0.667395        -0.169238
 H         0.069550        -0.356102         1.125315
 H         0.815204         1.201559         0.877170
 H         3.411564         0.579841        -0.103821
 H         2.809259         0.684612        -2.982739
 H         2.983860        -1.050382        -4.213881
 H         3.819076        -1.933605        -2.933350
 H         0.280189        -1.545478        -3.820311
 H         0.035683        -2.431479        -2.146436
 H         0.406374         0.442894        -2.675241
