19
Iteration:   791charge 0 multiplicity 1
 C         0.235418         0.379302         0.333747
 C         1.214956        -0.217543        -0.670990
 O         2.124481        -1.268518        -0.298074
 C         2.744161        -0.072078        -0.864528
 C         2.513462        -0.139808        -2.411577
 C         2.875255        -1.314074        -3.254373
 O         1.880900        -2.378562        -3.046506
 C         0.702933        -1.821897        -2.598205
 C         0.989019        -0.405618        -2.141069
 H         0.218108         1.473762         0.047827
 H        -0.883500         0.039582         0.365306
 H         0.623313         0.213105         1.338546
 H         3.410018         0.717310        -0.333502
 H         2.781094         0.793459        -2.818711
 H         3.007323        -0.998652        -4.380291
 H         3.848165        -1.762488        -2.958329
 H        -0.126485        -1.901050        -3.289085
 H         0.485964        -2.405801        -1.717813
 H         0.201166         0.148114        -2.680410
