19
Iteration:  1566
 C         0.259043         0.397411         0.344810
 C         1.234226        -0.227294        -0.638958
 O         2.109463        -1.309782        -0.377843
 C         2.712343        -0.126538        -0.891689
 C         2.496692        -0.118878        -2.387979
 C         2.928108        -1.336224        -3.164803
 O         1.894335        -2.391455        -3.034041
 C         0.643402        -1.757669        -2.645279
 C         0.999003        -0.344185        -2.117033
 H         0.168024         1.422351         0.080144
 H        -0.768746        -0.073005         0.135934
 H         0.525030         0.321920         1.501437
 H         3.499014         0.469752        -0.278054
 H         2.632258         0.758505        -2.943356
 H         3.153324        -1.035639        -4.284596
 H         3.939117        -1.713350        -2.919244
 H        -0.148551        -1.914144        -3.473874
 H         0.337529        -2.362165        -1.827659
 H         0.281731         0.369258        -2.612718
