19
Iteration:  1936charge 0 multiplicity 1
 C         0.185691         0.113328         0.407213
 C         1.224900        -0.235374        -0.671485
 O         2.236354        -1.196019        -0.323601
 C         2.692650         0.097278        -0.929624
 C         2.531667        -0.104657        -2.481987
 C         2.947895        -1.518276        -3.044591
 O         1.814442        -2.422596        -2.921168
 C         0.642220        -1.620768        -2.773336
 C         1.001087        -0.277695        -2.227086
 H         0.012982         1.080536         0.275155
 H        -0.748254        -0.479192         0.431334
 H         0.649219        -0.007291         1.465874
 H         3.494489         0.552280        -0.313870
 H         2.771987         0.724717        -3.118129
 H         3.112428        -1.335546        -4.134008
 H         3.757055        -2.162391        -2.658569
 H         0.087430        -1.428660        -3.712306
 H        -0.069331        -2.058080        -2.143162
 H         0.361251         0.436336        -2.745869
