19
Iteration:  3228charge 0 multiplicity 1
 C         0.402318         0.346656         0.503270
 C         1.072972        -0.221620        -0.721331
 O         2.020656        -1.367043        -0.341103
 C         2.646334        -0.220858        -0.846545
 C         2.560570        -0.138972        -2.355579
 C         2.997749        -1.402175        -3.150230
 O         1.952583        -2.373905        -2.919818
 C         0.602011        -1.639656        -2.912547
 C         0.968929        -0.219756        -2.276011
 H         0.356156        -0.379774         1.434156
 H         0.759766         1.339402         0.826723
 H        -0.711640         0.613455         0.447164
 H         3.309302         0.337216        -0.283295
 H         2.982455         0.789444        -2.625131
 H         3.173886        -1.027051        -4.240327
 H         3.880897        -1.874576        -2.765570
 H         0.243304        -1.573612        -3.859923
 H        -0.047065        -2.148795        -2.198305
 H         0.418069         0.595611        -2.678935
