19
Iteration:  4666
 C         0.094640         0.366089         0.188486
 C         1.286700        -0.240806        -0.557849
 O         1.862450        -1.535679        -0.161254
 C         2.733808        -0.463910        -0.598065
 C         2.760261        -0.336276        -2.144748
 C         3.011578        -1.600568        -3.039726
 O         1.720876        -2.151553        -3.377794
 C         0.640866        -1.187760        -2.988903
 C         1.213550        -0.092012        -2.204130
 H         0.190183         0.005625         1.268644
 H         0.054659         1.396021         0.203376
 H        -0.845472        -0.016657        -0.227535
 H         3.514997        -0.051735         0.176138
 H         3.323321         0.531383        -2.589840
 H         3.683699        -1.347029        -3.883992
 H         3.580609        -2.496513        -2.669452
 H         0.191709        -0.733718        -3.878641
 H        -0.103828        -1.741184        -2.439404
 H         1.119422         0.973896        -2.421616
