19
Iteration:  3073charge 0 multiplicity 1
 C         0.352350         0.315223         0.435920
 C         1.210607        -0.240145        -0.738436
 O         2.203074        -1.272549        -0.321995
 C         2.581358        -0.041056        -0.833264
 C         2.554817        -0.134469        -2.342094
 C         3.042916        -1.561848        -2.868181
 O         1.817550        -2.200610        -3.339952
 C         0.567015        -1.795161        -2.716729
 C         0.928608        -0.307363        -2.237596
 H        -0.682149         0.721429         0.016891
 H         0.271270        -0.436482         1.212864
 H         0.770301         1.197234         0.696075
 H         3.327120         0.701277        -0.238616
 H         2.674484         0.726168        -3.001581
 H         3.711117        -1.506174        -3.768010
 H         3.553463        -1.935004        -2.035110
 H        -0.358313        -1.854288        -3.507113
 H         0.255013        -2.412592        -1.781229
 H         0.248132         0.417761        -2.636602
