19
Iteration:  4616
 C         0.260777         0.365831         0.354659
 C         1.183476        -0.268274        -0.614421
 O         1.770350        -1.531904        -0.231962
 C         2.604039        -0.461038        -0.640587
 C         2.705835        -0.278572        -2.235388
 C         3.057432        -1.544705        -3.013531
 O         1.765086        -2.153546        -3.282784
 C         0.700287        -1.273193        -3.072819
 C         1.225638        -0.110412        -2.219085
 H         0.285700        -0.094081         1.312723
 H         0.665320         1.508175         0.564118
 H        -0.779774         0.497281        -0.022635
 H         3.417633        -0.251590         0.102933
 H         3.499325         0.476878        -2.530530
 H         3.766352        -1.385820        -3.903323
 H         3.535228        -2.317464        -2.365354
 H         0.314766        -0.865977        -4.003384
 H        -0.101939        -1.849917        -2.494411
 H         0.913572         0.954483        -2.361466
