19
Iteration:  3996charge 0 multiplicity 1
 C         0.399193         0.584235         0.513240
 C         1.129880        -0.180722        -0.571820
 O         1.781455        -1.460546        -0.246078
 C         2.585331        -0.417012        -0.627159
 C         2.671150        -0.420973        -2.135155
 C         3.014048        -1.589596        -3.035393
 O         1.866769        -1.961692        -3.719369
 C         0.675146        -1.547974        -2.910431
 C         1.125454        -0.256686        -2.160511
 H         0.004217        -0.084798         1.274164
 H         1.041958         1.303048         1.057947
 H        -0.632961         0.922919         0.161072
 H         3.345530        -0.156031         0.094956
 H         3.017805         0.476517        -2.615440
 H         3.840655        -1.258356        -3.753698
 H         3.457990        -2.391039        -2.353640
 H        -0.138240        -1.610188        -3.638909
 H         0.561002        -2.358907        -2.215185
 H         0.863776         0.729444        -2.682632
