19
Iteration:  1638
 C         0.281263         0.264511         0.463466
 C         1.268157        -0.170638        -0.641700
 O         2.230391        -1.066952        -0.155992
 C         2.662955         0.113301        -0.868554
 C         2.506328        -0.291252        -2.421675
 C         2.888996        -1.671958        -2.876289
 O         1.777700        -2.150889        -3.589344
 C         0.657975        -1.791892        -2.747087
 C         0.985671        -0.444742        -2.134209
 H        -0.557033         0.863862         0.057233
 H        -0.086572        -0.668141         0.845557
 H         0.780960         0.809942         1.236346
 H         3.132117         0.860003        -0.294641
 H         2.684716         0.641425        -3.087582
 H         3.747853        -1.843065        -3.419359
 H         3.107506        -2.295959        -2.005857
 H        -0.206510        -1.875961        -3.336870
 H         0.663394        -2.611545        -1.985076
 H         0.540033         0.401127        -2.614262
