19
Iteration:  4074
 C         0.246362         0.455819         0.282783
 C         1.243203        -0.226585        -0.589592
 O         1.725662        -1.457112        -0.130673
 C         2.719908        -0.499612        -0.555759
 C         2.763478        -0.424385        -2.148433
 C         2.925087        -1.606470        -3.039158
 O         1.751356        -1.780997        -3.778315
 C         0.734283        -1.519423        -2.774711
 C         1.242861        -0.253386        -2.120862
 H         0.582912         0.622764         1.210091
 H         0.126926         1.457463        -0.224968
 H        -0.825037         0.133848         0.216904
 H         3.393738        -0.001469         0.102283
 H         3.294402         0.403257        -2.525934
 H         3.827428        -1.392266        -3.657060
 H         3.157605        -2.530408        -2.396827
 H        -0.176985        -1.369588        -3.371940
 H         0.657187        -2.354797        -2.127132
 H         0.764504         0.604236        -2.572483
