19
Iteration:  3068charge 0 multiplicity 1
 C         0.318888         0.324798         0.407796
 C         1.160788        -0.268475        -0.708678
 O         2.177115        -1.266976        -0.335104
 C         2.611808         0.042908        -0.830339
 C         2.537264        -0.168638        -2.361167
 C         3.038981        -1.573009        -2.899925
 O         1.831785        -2.181629        -3.358687
 C         0.540972        -1.773785        -2.701059
 C         0.980422        -0.355761        -2.188879
 H        -0.567856         0.726593         0.029838
 H         0.356565        -0.432882         1.217015
 H         0.958081         1.225921         0.889431
 H         3.306437         0.503437        -0.270221
 H         2.687775         0.721104        -3.003371
 H         3.720521        -1.521151        -3.739082
 H         3.579978        -2.027377        -1.976447
 H        -0.188676        -1.874644        -3.390561
 H         0.390689        -2.415084        -1.838128
 H         0.291521         0.408772        -2.671465
