19
Iteration:   275charge 0 multiplicity 1
 C         0.323248         0.262505         0.399405
 C         1.263903        -0.242422        -0.658815
 O         2.190670        -1.260934        -0.257998
 C         2.656888         0.026469        -0.855088
 C         2.535209        -0.118755        -2.391350
 C         2.912782        -1.430777        -3.028819
 O         1.769903        -2.411060        -3.136957
 C         0.656125        -1.727094        -2.791768
 C         0.960774        -0.353731        -2.217182
 H        -0.568418         0.697597        -0.270979
 H         0.068230        -0.356759         1.156491
 H         0.744276         1.227342         0.942821
 H         3.246583         0.847385        -0.175891
 H         2.836748         0.781161        -2.957886
 H         3.432824        -1.386154        -4.079796
 H         3.616118        -1.896998        -2.445719
 H         0.119857        -1.374786        -3.736645
 H         0.041210        -2.399940        -2.192664
 H         0.337103         0.479676        -2.621786
