19
Iteration:   104charge 0 multiplicity 1
 C         0.195074         0.398851         0.350145
 C         1.250288        -0.251821        -0.584901
 O         2.279648        -1.111368        -0.163951
 C         2.720098         0.025674        -0.854825
 C         2.509330        -0.219755        -2.403774
 C         3.015756        -1.432346        -3.101824
 O         1.797581        -2.329956        -3.304428
 C         0.520087        -1.833812        -2.760493
 C         1.006475        -0.525644        -2.071862
 H         0.165813         1.509587         0.314027
 H        -0.828283         0.232115        -0.156346
 H         0.235138        -0.027268         1.385050
 H         3.437577         0.737444        -0.321270
 H         2.701836         0.712525        -2.977361
 H         3.401308        -1.290734        -4.148093
 H         3.666243        -2.040942        -2.363898
 H        -0.069395        -1.496835        -3.683881
 H        -0.011325        -2.633994        -2.201289
 H         0.418048         0.294301        -2.446752
