19
Iteration:  3793
 C         0.333448         0.587777         0.399691
 C         1.152092        -0.206350        -0.535198
 O         1.861925        -1.460643        -0.138506
 C         2.602644        -0.433103        -0.717145
 C         2.636166        -0.363160        -2.198627
 C         3.067284        -1.533975        -3.096390
 O         1.792545        -1.949236        -3.682292
 C         0.678191        -1.655007        -2.765693
 C         1.133444        -0.278327        -2.149994
 H         0.542909         1.689662         0.226279
 H        -0.755831         0.473775         0.208351
 H         0.516258         0.204069         1.436357
 H         3.374158         0.125052        -0.159300
 H         3.082219         0.565983        -2.564953
 H         3.658357        -1.129074        -3.918631
 H         3.603979        -2.460901        -2.615793
 H        -0.195271        -1.698191        -3.362717
 H         0.543224        -2.415636        -2.037342
 H         0.856016         0.658212        -2.557574
