19
Iteration:  2499
 C         0.279325         0.068861         0.450985
 C         1.188275        -0.214727        -0.704572
 O         2.266344        -1.156398        -0.243100
 C         2.640447         0.097974        -1.005925
 C         2.513116        -0.163819        -2.437769
 C         2.978895        -1.483258        -3.035604
 O         1.767005        -2.388548        -2.880546
 C         0.615700        -1.638761        -2.898199
 C         0.985263        -0.329155        -2.258651
 H        -0.404574         0.900414         0.445129
 H        -0.289076        -0.925361         0.552139
 H         0.924597         0.403887         1.341522
 H         3.344213         0.640505        -0.591479
 H         2.959396         0.653201        -3.027888
 H         3.330109        -1.281536        -4.089431
 H         3.736588        -2.007338        -2.459711
 H         0.232220        -1.343929        -3.950520
 H        -0.140614        -1.987728        -2.328033
 H         0.312317         0.492087        -2.456012
