19
Iteration:  1411
 C         0.177099         0.191624         0.371542
 C         1.223075        -0.065804        -0.652514
 O         2.233424        -1.077720        -0.134217
 C         2.729667         0.071641        -0.890807
 C         2.525457        -0.267955        -2.391561
 C         2.935631        -1.683064        -2.930851
 O         1.742847        -2.095991        -3.569346
 C         0.644561        -1.805841        -2.605462
 C         1.038800        -0.452743        -2.165596
 H        -0.298107         1.147315         0.217990
 H        -0.662536        -0.630745         0.372727
 H         0.740334         0.429927         1.303155
 H         3.520644         0.570322        -0.447402
 H         2.854944         0.542136        -3.012095
 H         3.763228        -1.815001        -3.643488
 H         3.188791        -2.312202        -2.025723
 H        -0.293279        -1.964956        -3.083385
 H         0.754050        -2.460091        -1.797030
 H         0.470045         0.306522        -2.685218
