19
Iteration:  2583
 C         0.310413         0.391363         0.430995
 C         1.209714        -0.169646        -0.635102
 O         2.048857        -1.285069        -0.290617
 C         2.647612        -0.112986        -0.952995
 C         2.457527        -0.078509        -2.444197
 C         2.926714        -1.316177        -3.183604
 O         1.991883        -2.435366        -3.054600
 C         0.710898        -1.820987        -2.657177
 C         0.974125        -0.373491        -2.152092
 H         0.044803         1.386886         0.180750
 H        -0.726729        -0.128072         0.395065
 H         0.747042         0.241841         1.382412
 H         3.435306         0.379161        -0.235367
 H         2.660484         0.827311        -2.941245
 H         2.937186        -0.970714        -4.244273
 H         3.884984        -1.739334        -2.943802
 H         0.022944        -1.734107        -3.576665
 H         0.145268        -2.537367        -1.886023
 H         0.307777         0.430068        -2.700016
