19
Iteration:  3411
 C         0.273688         0.337835         0.437070
 C         1.229694        -0.171769        -0.638767
 O         2.051667        -1.282915        -0.153586
 C         2.706630        -0.129324        -0.827421
 C         2.607072        -0.265312        -2.350501
 C         3.008905        -1.563254        -2.937143
 O         1.794391        -2.152144        -3.542854
 C         0.580432        -1.635683        -2.789970
 C         1.036075        -0.324528        -2.124941
 H         0.267405         1.482211         0.536700
 H        -0.690446         0.044884         0.119854
 H         0.330590        -0.223611         1.291889
 H         3.398118         0.235761        -0.154337
 H         2.935062         0.592304        -2.939823
 H         3.776279        -1.471632        -3.729356
 H         3.369507        -2.312814        -2.157475
 H        -0.198097        -1.462888        -3.450220
 H         0.438249        -2.474911        -2.136024
 H         0.474025         0.452943        -2.694833
