19
Iteration:  3134charge 0 multiplicity 1
 C         0.205246         0.221398         0.354093
 C         1.186752        -0.156855        -0.653585
 O         2.230700        -1.236107        -0.160395
 C         2.708477        -0.046269        -0.801705
 C         2.561052        -0.216182        -2.336844
 C         2.909245        -1.480718        -3.106248
 O         1.802906        -2.347359        -3.211982
 C         0.602587        -1.656157        -2.807162
 C         1.059625        -0.305439        -2.236401
 H        -0.699044        -0.371686         0.303796
 H         0.677603         0.263871         1.376359
 H        -0.142315         1.352316         0.337646
 H         3.455572         0.501469        -0.317616
 H         2.773784         0.724857        -2.897323
 H         3.173962        -1.287846        -4.144979
 H         3.749781        -2.160357        -2.649134
 H        -0.011179        -1.550319        -3.702196
 H         0.114929        -2.248012        -2.058071
 H         0.527127         0.661279        -2.461840
