19
Iteration:  1380charge 0 multiplicity 1
 C         0.235206         0.293562         0.344191
 C         1.274587        -0.187253        -0.577722
 O         2.300494        -1.104147        -0.139115
 C         2.674900         0.167842        -0.862088
 C         2.475868        -0.249462        -2.392314
 C         2.907748        -1.713409        -2.853392
 O         1.798849        -2.083423        -3.659758
 C         0.615175        -1.826591        -2.713540
 C         0.968169        -0.516300        -2.082659
 H         0.014139         1.187170        -0.048614
 H        -0.679164        -0.356519         0.401157
 H         0.664356         0.566300         1.393357
 H         3.323864         0.807120        -0.405740
 H         2.814203         0.624746        -3.136466
 H         3.850609        -1.846086        -3.401719
 H         2.950497        -2.433133        -1.993886
 H        -0.312020        -1.947841        -3.276705
 H         0.615947        -2.591062        -1.833849
 H         0.303444         0.254499        -2.507100
