19
Iteration:   554charge 0 multiplicity 1
 C         0.265671         0.151880         0.444275
 C         1.227892        -0.239731        -0.684709
 O         2.337245        -1.116958        -0.296313
 C         2.650515         0.158873        -0.930472
 C         2.504521        -0.202493        -2.437364
 C         2.914096        -1.564569        -2.974461
 O         1.803715        -2.472231        -2.955320
 C         0.574393        -1.585165        -2.917049
 C         0.949591        -0.304237        -2.222933
 H        -0.505107         0.889646         0.123041
 H        -0.331378        -0.810972         0.903765
 H         0.819776         0.320852         1.371072
 H         3.394615         0.679903        -0.291504
 H         3.015900         0.648770        -3.027408
 H         3.114703        -1.408437        -4.095217
 H         3.855628        -1.980593        -2.635836
 H         0.209518        -1.425769        -3.927578
 H        -0.229188        -2.206510        -2.438039
 H         0.315050         0.616784        -2.505221
