19
Iteration:  4711
 C         0.259623         0.343445         0.436391
 C         1.204679        -0.187791        -0.675147
 O         1.770749        -1.535723        -0.477793
 C         2.646568        -0.488301        -0.608086
 C         2.785296        -0.314726        -2.099391
 C         3.023926        -1.600742        -2.843213
 O         1.742321        -2.190159        -3.318116
 C         0.644060        -1.250001        -3.060963
 C         1.231323         0.004920        -2.224149
 H         0.811586         0.616123         1.352545
 H        -0.243597         1.175246        -0.043161
 H        -0.478764        -0.436204         0.570235
 H         3.295006         0.008605         0.255550
 H         3.579210         0.476457        -2.412532
 H         3.569836        -1.467221        -3.844995
 H         3.723498        -2.326298        -2.367833
 H         0.253984        -0.886793        -4.012771
 H        -0.143111        -1.735334        -2.478201
 H         0.812527         0.969648        -2.625747
