19
Iteration:   992
 C         0.266602         0.443740         0.340882
 C         1.210607        -0.178350        -0.679878
 O         2.134276        -1.276710        -0.267439
 C         2.717485         0.001523        -0.849840
 C         2.446858        -0.164039        -2.385589
 C         2.982943        -1.440756        -3.148490
 O         1.755346        -2.214020        -3.361071
 C         0.804602        -1.904695        -2.434476
 C         0.956766        -0.476095        -2.128488
 H         0.087942         1.552663         0.228318
 H        -0.715644         0.031561         0.193155
 H         0.705250         0.335334         1.386144
 H         3.519205         0.400894        -0.389790
 H         2.605213         0.773670        -2.960159
 H         3.323237        -1.416332        -4.202709
 H         3.764119        -1.988817        -2.660024
 H        -0.196765        -2.124039        -3.041479
 H         0.646673        -2.479451        -1.532131
 H         0.344778         0.262883        -2.767311
