19
Iteration:  4949charge 0 multiplicity 1
 C         0.138366         0.439115         0.229534
 C         1.227124        -0.319751        -0.581471
 O         1.818420        -1.532030        -0.128906
 C         2.697337        -0.476520        -0.588288
 C         2.797753        -0.333831        -2.174679
 C         2.998823        -1.593548        -3.028434
 O         1.708970        -2.118417        -3.384235
 C         0.676866        -1.162347        -3.124163
 C         1.274626        -0.168766        -2.097452
 H         0.457812         0.955056         1.228879
 H        -0.494859         1.098777        -0.241932
 H        -0.510180        -0.433663         0.576642
 H         3.554756        -0.233099         0.211910
 H         3.491680         0.384310        -2.542604
 H         3.609911        -1.361701        -3.976728
 H         3.595481        -2.450219        -2.614099
 H         0.520101        -0.536616        -3.978612
 H        -0.313474        -1.628314        -2.935408
 H         0.857903         0.861424        -2.363062
