19
Iteration:  4991
 C         0.212016         0.242486         0.295903
 C         1.254083        -0.202405        -0.709093
 O         1.677648        -1.513386        -0.330241
 C         2.655891        -0.449665        -0.586522
 C         2.921409        -0.315131        -2.157806
 C         2.923055        -1.599577        -2.986438
 O         1.699292        -2.136084        -3.176965
 C         0.714802        -1.169300        -3.082196
 C         1.305162        -0.093048        -2.190374
 H         0.875949         0.381731         1.268499
 H        -0.198779         1.108979        -0.029924
 H        -0.620362        -0.534770         0.358022
 H         3.403570        -0.105037         0.296775
 H         3.373567         0.601973        -2.382468
 H         3.365712        -1.364018        -3.923584
 H         3.522362        -2.290562        -2.513112
 H         0.525013        -0.754160        -4.077514
 H        -0.187644        -1.680703        -2.612822
 H         1.006347         0.931375        -2.498565
