19
Iteration:   906charge 0 multiplicity 1
 C         0.328061         0.116577         0.507488
 C         1.221241        -0.234105        -0.650077
 O         2.386992        -1.119110        -0.305123
 C         2.667308         0.083314        -0.941158
 C         2.480566        -0.149966        -2.529956
 C         2.840233        -1.571803        -2.867305
 O         1.769373        -2.384715        -2.988683
 C         0.611318        -1.623095        -3.030120
 C         0.910338        -0.324331        -2.178184
 H        -0.629127         0.551034         0.080116
 H        -0.036325        -0.817112         1.075189
 H         0.794906         0.803162         1.317941
 H         3.338817         0.758201        -0.402612
 H         2.851199         0.613807        -3.257213
 H         3.475551        -1.630478        -3.804759
 H         3.594637        -1.955338        -2.152212
 H         0.277175        -1.284111        -3.978918
 H        -0.255442        -2.207746        -2.652230
 H         0.332665         0.542934        -2.476828
