19
Iteration:   856charge 0 multiplicity 1
 C         0.274781         0.075058         0.456171
 C         1.247417        -0.210763        -0.683774
 O         2.350305        -1.180546        -0.339579
 C         2.658743         0.079395        -0.966169
 C         2.532945        -0.131360        -2.424548
 C         2.932331        -1.527169        -3.044335
 O         1.767400        -2.400100        -2.804818
 C         0.561134        -1.629370        -2.883229
 C         0.934126        -0.287706        -2.285266
 H        -0.407017         0.870864         0.236928
 H        -0.369505        -0.805245         0.691114
 H         0.842878         0.305484         1.312969
 H         3.054724         1.042045        -0.380632
 H         2.939147         0.692340        -2.951955
 H         3.168699        -1.393531        -4.090680
 H         3.844492        -2.092506        -2.774396
 H         0.298392        -1.578195        -3.974235
 H        -0.379246        -1.926639        -2.426003
 H         0.383130         0.627209        -2.576097
