19
Iteration:  4092
 C         0.264838         0.428561         0.326375
 C         1.252363        -0.169018        -0.638160
 O         1.774060        -1.468202        -0.092784
 C         2.692535        -0.442743        -0.563038
 C         2.730112        -0.378191        -2.109669
 C         2.997217        -1.686628        -2.949529
 O         1.769602        -1.862034        -3.795890
 C         0.680001        -1.427545        -2.932648
 C         1.157270        -0.171806        -2.166673
 H         0.789514         0.632184         1.360704
 H        -0.309273         1.354340         0.023934
 H        -0.368746        -0.440372         0.549697
 H         3.524921        -0.402116         0.053348
 H         3.316064         0.524112        -2.391641
 H         3.848994        -1.753659        -3.672226
 H         3.030375        -2.602477        -2.340483
 H        -0.255852        -1.603368        -3.427388
 H         0.433305        -2.182683        -2.082385
 H         0.937173         0.808408        -2.699120
