19
Iteration:   219
 C         0.284067         0.322792         0.353107
 C         1.255641        -0.219982        -0.649217
 O         2.147652        -1.200898        -0.145890
 C         2.695358        -0.070769        -0.806073
 C         2.503791        -0.150053        -2.374069
 C         2.867372        -1.459446        -3.283352
 O         1.913517        -2.481907        -2.987156
 C         0.628632        -1.639801        -2.923501
 C         1.001083        -0.374812        -2.137959
 H        -0.766031         0.504069        -0.038567
 H         0.012839        -0.371234         1.107990
 H         0.711683         1.284947         0.801824
 H         3.502443         0.547353        -0.307077
 H         2.779852         0.824999        -2.793486
 H         2.597495        -1.072245        -4.316661
 H         3.861496        -1.790641        -3.135492
 H         0.183516        -1.313054        -3.846428
 H        -0.082446        -2.260189        -2.394110
 H         0.346583         0.534643        -2.311359
