19
Iteration:  1146charge 0 multiplicity 1
 C         0.231011         0.156705         0.433499
 C         1.228785        -0.116692        -0.691001
 O         2.234445        -1.151733        -0.284105
 C         2.691209         0.030923        -0.881029
 C         2.535203        -0.181957        -2.458051
 C         2.968006        -1.623200        -2.921367
 O         1.787682        -2.278025        -3.276085
 C         0.569878        -1.741854        -2.643366
 C         1.029880        -0.246122        -2.284099
 H        -0.483349         0.849907         0.173010
 H        -0.285712        -0.801360         0.722209
 H         0.739932         0.448961         1.289844
 H         3.332084         0.716537        -0.173523
 H         2.746252         0.559723        -3.208006
 H         3.599059        -1.602520        -3.763171
 H         3.375588        -2.229968        -2.065213
 H        -0.224757        -1.815780        -3.410162
 H         0.290752        -2.273340        -1.677261
 H         0.462483         0.570386        -2.817129
