19
Iteration:   106
 C         0.207359         0.405628         0.355572
 C         1.246587        -0.261271        -0.583927
 O         2.270445        -1.116958        -0.161898
 C         2.713188         0.039115        -0.860392
 C         2.513224        -0.220507        -2.399134
 C         3.012132        -1.442947        -3.110599
 O         1.795945        -2.329734        -3.291150
 C         0.541999        -1.821551        -2.771760
 C         1.007757        -0.517903        -2.077082
 H         0.173957         1.467115         0.335173
 H        -0.887011         0.172862        -0.134031
 H         0.270022        -0.039116         1.336328
 H         3.320317         0.684994        -0.376628
 H         2.671365         0.712543        -2.968533
 H         3.391321        -1.292098        -4.152857
 H         3.632865        -2.086313        -2.402767
 H        -0.045610        -1.535043        -3.640921
 H         0.056676        -2.615168        -2.142855
 H         0.405572         0.380261        -2.460313
