19
Iteration:  2752charge 0 multiplicity 1
 C         0.297665         0.145719         0.433573
 C         1.199535        -0.249961        -0.634286
 O         2.218031        -1.249731        -0.391759
 C         2.711394         0.001521        -0.955737
 C         2.408276        -0.100309        -2.507885
 C         2.966550        -1.428216        -2.950573
 O         1.815487        -2.359053        -2.816586
 C         0.637512        -1.670517        -2.914141
 C         0.954850        -0.319977        -2.251468
 H         0.182607         1.212667         0.371799
 H        -0.640050        -0.317885         0.274053
 H         0.864360         0.091756         1.454141
 H         3.623147         0.513391        -0.382130
 H         2.803097         0.800782        -3.101260
 H         3.315174        -1.249347        -4.021747
 H         3.789289        -1.907430        -2.302129
 H         0.119168        -1.482455        -3.964697
 H        -0.082561        -2.144681        -2.280883
 H         0.329019         0.550420        -2.568407
