19
Iteration:   774
 C         0.403490         0.493562         0.351222
 C         1.186679        -0.205527        -0.634941
 O         2.042032        -1.285702        -0.190371
 C         2.600759        -0.077104        -0.861796
 C         2.451537        -0.130897        -2.421569
 C         2.958256        -1.333268        -3.292507
 O         1.990949        -2.399307        -3.177797
 C         0.684060        -1.916316        -2.571262
 C         0.915238        -0.382755        -2.160060
 H         0.180162         1.558202         0.098922
 H        -0.472165        -0.043246         0.380012
 H         0.850020         0.344235         1.411031
 H         3.349339         0.274091        -0.252779
 H         2.606835         0.944485        -2.878118
 H         2.919864        -0.914633        -4.263612
 H         3.941620        -1.711385        -3.022388
 H        -0.012848        -1.947669        -3.460692
 H         0.382279        -2.500237        -1.633244
 H         0.277859         0.445955        -2.622826
