19
Iteration:   253charge 0 multiplicity 1
 C         0.222214         0.312829         0.430770
 C         1.210308        -0.208472        -0.592641
 O         2.219213        -1.150154        -0.139245
 C         2.688573        -0.070726        -0.893472
 C         2.506234        -0.247824        -2.365644
 C         2.978522        -1.505219        -3.230472
 O         1.895379        -2.389135        -3.067872
 C         0.530356        -1.623355        -2.933208
 C         0.980367        -0.394144        -2.134841
 H        -0.742788         0.603954        -0.162605
 H         0.130723        -0.377441         1.173215
 H         0.550814         1.295399         0.982495
 H         3.541519         0.596960        -0.356271
 H         2.793804         0.691337        -2.868538
 H         3.126280        -1.200733        -4.351227
 H         3.885312        -1.957331        -3.048841
 H         0.092181        -1.407306        -3.926733
 H         0.017947        -2.395908        -2.386167
 H         0.326052         0.487548        -2.323094
