19
Iteration:  3092charge 0 multiplicity 1
 C         0.282715         0.305240         0.431725
 C         1.222570        -0.215812        -0.660652
 O         2.174654        -1.274264        -0.285925
 C         2.652212        -0.015205        -0.863932
 C         2.474924        -0.160264        -2.415188
 C         2.923773        -1.508701        -2.926930
 O         1.846457        -2.313483        -3.282057
 C         0.633536        -1.680486        -2.784848
 C         0.988441        -0.321025        -2.187277
 H        -0.780276         0.346026         0.016008
 H         0.571277        -0.400429         1.218368
 H         0.538694         1.320938         0.842766
 H         3.480531         0.400955        -0.336337
 H         2.964795         0.683284        -2.973548
 H         3.650583        -1.349567        -3.768821
 H         3.446884        -1.996487        -2.064405
 H        -0.073726        -1.679851        -3.535831
 H         0.326747        -2.340036        -1.933303
 H         0.346209         0.444761        -2.727155
