19
Iteration:  1218charge 0 multiplicity 1
 C         0.321842         0.305946         0.386346
 C         1.213870        -0.288975        -0.656196
 O         2.200066        -1.220555        -0.212817
 C         2.679872         0.049374        -0.810432
 C         2.495637        -0.198141        -2.436807
 C         2.843483        -1.449792        -3.179000
 O         1.883237        -2.396277        -2.921027
 C         0.656491        -1.678033        -2.956649
 C         0.961357        -0.412599        -2.149623
 H         0.493473         1.512083         0.374066
 H        -0.732288         0.095959         0.242789
 H         0.700646         0.058753         1.525417
 H         3.240163         0.675570        -0.252171
 H         2.633580         0.798649        -2.920517
 H         2.761907        -1.201804        -4.315184
 H         3.818559        -1.854515        -2.943713
 H         0.389728        -1.337121        -3.985785
 H        -0.103220        -2.384916        -2.592158
 H         0.348921         0.433847        -2.576310
