19
Iteration:  3947
 C         0.246916         0.334286         0.319898
 C         1.305064        -0.209503        -0.609356
 O         1.905632        -1.493155        -0.225932
 C         2.716619        -0.302157        -0.700261
 C         2.642107        -0.311772        -2.201810
 C         3.008907        -1.696305        -2.839942
 O         1.722514        -1.953990        -3.592053
 C         0.646671        -1.402544        -2.869870
 C         1.128881        -0.174224        -2.204223
 H        -0.509076        -0.469955         0.692350
 H         0.710220         0.745460         1.220909
 H        -0.434203         0.979417        -0.162372
 H         3.516463         0.049424        -0.108532
 H         3.177937         0.510506        -2.695198
 H         3.783869        -1.659441        -3.566847
 H         3.269390        -2.392200        -1.980305
 H        -0.155606        -1.195625        -3.589387
 H         0.310662        -2.173869        -2.130541
 H         0.879209         0.781699        -2.567091
