19
Iteration:  3128
 C         0.187094         0.276364         0.373603
 C         1.205667        -0.130711        -0.623567
 O         2.225059        -1.228293        -0.202689
 C         2.682818        -0.034809        -0.833232
 C         2.607807        -0.245097        -2.342500
 C         2.930568        -1.520218        -3.111743
 O         1.820893        -2.321866        -3.217338
 C         0.588953        -1.652630        -2.813526
 C         1.012778        -0.334781        -2.194067
 H        -0.730935        -0.453576         0.401620
 H         0.506260        -0.038450         1.379065
 H        -0.064730         1.270469         0.440319
 H         3.534086         0.576740        -0.292808
 H         2.975830         0.646122        -2.871980
 H         3.359147        -1.275950        -4.141777
 H         3.698164        -2.034152        -2.619171
 H        -0.120109        -1.487982        -3.682623
 H         0.075762        -2.351000        -2.070481
 H         0.396892         0.524450        -2.509383
