19
Iteration:   369
 C         0.156451         0.376725         0.299509
 C         1.276742        -0.202565        -0.539533
 O         2.257960        -1.116413        -0.097825
 C         2.719504         0.140576        -0.853228
 C         2.542720        -0.270151        -2.422684
 C         3.004441        -1.560867        -3.067803
 O         1.711708        -2.178343        -3.553940
 C         0.664032        -1.934078        -2.642457
 C         0.966670        -0.470485        -2.066205
 H         0.273290         1.396675         0.300618
 H        -0.970262        -0.005615         0.035216
 H         0.140881         0.013485         1.307671
 H         3.434497         0.690125        -0.403727
 H         2.655126         0.576503        -3.121775
 H         3.732151        -1.489649        -3.807458
 H         3.525895        -2.266082        -2.293216
 H        -0.320657        -2.030303        -3.119280
 H         0.698137        -2.553692        -1.708910
 H         0.303333         0.315265        -2.488280
