19
Iteration:  4149
 C         0.357582         0.304650         0.362743
 C         1.200179        -0.308657        -0.648310
 O         1.932525        -1.492951        -0.166852
 C         2.721870        -0.407714        -0.632713
 C         2.676050        -0.265996        -2.195510
 C         2.886228        -1.718442        -2.720550
 O         1.730802        -1.980198        -3.577482
 C         0.651832        -1.248380        -3.122329
 C         1.169360        -0.117948        -2.217472
 H         0.780208         0.712330         1.205755
 H        -0.448267         0.969535        -0.109813
 H        -0.414951        -0.515829         0.630698
 H         3.273298         0.213820         0.016937
 H         3.366499         0.440384        -2.513825
 H         3.860174        -1.741587        -3.290766
 H         2.875289        -2.500706        -1.911725
 H         0.336291        -0.892055        -4.040416
 H        -0.061631        -1.947829        -2.598335
 H         0.805585         0.853336        -2.627461
