19
Iteration:  3706charge 0 multiplicity 1
 C         0.349824         0.398472         0.395731
 C         1.203076        -0.244885        -0.593897
 O         1.904229        -1.296318        -0.144690
 C         2.694076        -0.187106        -0.673075
 C         2.683815        -0.295427        -2.230867
 C         2.945186        -1.680490        -2.966497
 O         1.754690        -1.969025        -3.718763
 C         0.640518        -1.601200        -2.874403
 C         1.132046        -0.375634        -2.137859
 H         0.916955         0.358331         1.391028
 H        -0.022372         1.435095         0.336165
 H        -0.529579        -0.304954         0.498903
 H         3.495172         0.347381         0.023591
 H         3.183193         0.598924        -2.634991
 H         3.759717        -1.679281        -3.669282
 H         3.072867        -2.506701        -2.301698
 H        -0.170497        -1.344657        -3.515176
 H         0.407726        -2.413833        -2.014453
 H         0.502777         0.469127        -2.573668
