19
Iteration:  4034
 C         0.327548         0.641922         0.245316
 C         1.214799        -0.270779        -0.543299
 O         1.768193        -1.545444        -0.097239
 C         2.701514        -0.496033        -0.567941
 C         2.667191        -0.390251        -2.164376
 C         2.956445        -1.496056        -3.043015
 O         1.823854        -1.859580        -3.785839
 C         0.682290        -1.589655        -2.844952
 C         1.124517        -0.308857        -2.081956
 H         0.080074         0.202805         1.315638
 H         0.857089         1.595362         0.358806
 H        -0.593832         0.742722        -0.286841
 H         3.449778        -0.191185         0.269274
 H         3.215087         0.585321        -2.395344
 H         3.624503        -1.257822        -3.821267
 H         3.265979        -2.384972        -2.556286
 H        -0.198951        -1.326211        -3.476344
 H         0.757271        -2.358847        -1.999667
 H         0.913445         0.657173        -2.516993
