19
Iteration:   445
 C         0.336478         0.579937         0.448309
 C         1.149833        -0.086931        -0.659610
 O         2.098874        -1.206930        -0.038548
 C         2.660892        -0.114241        -0.855197
 C         2.446456        -0.190992        -2.412478
 C         3.029714        -1.441756        -3.119948
 O         1.839956        -2.223615        -3.580006
 C         0.781454        -2.044507        -2.626311
 C         0.886552        -0.504411        -2.155605
 H         0.010283         1.474192         0.092650
 H        -0.578728        -0.068417         0.920140
 H         0.975699         0.828869         1.273904
 H         3.328277         0.450110        -0.313746
 H         2.563855         0.798533        -2.903001
 H         3.528866        -1.242565        -4.022158
 H         3.712120        -2.005202        -2.414728
 H        -0.222034        -2.313430        -2.981916
 H         0.930445        -2.672990        -1.719256
 H         0.180007         0.147605        -2.704350
