19
Iteration:  1283charge 0 multiplicity 1
 C         0.312556         0.354474         0.342137
 C         1.233129        -0.190522        -0.712658
 O         1.997096        -1.341870        -0.392151
 C         2.686165        -0.169330        -0.875473
 C         2.549657        -0.059071        -2.365666
 C         2.884345        -1.386297        -3.165160
 O         1.924931        -2.358970        -3.096394
 C         0.704491        -1.761516        -2.501180
 C         0.995986        -0.292425        -2.187560
 H        -0.143442         1.190350        -0.209464
 H        -0.406102        -0.300727         0.701362
 H         0.870290         0.753134         1.315289
 H         3.315429         0.294450        -0.278688
 H         2.722716         0.918758        -2.960057
 H         3.012004        -1.142519        -4.234921
 H         3.765170        -1.773547        -2.716270
 H        -0.074958        -1.836106        -3.269700
 H         0.483884        -2.406390        -1.592550
 H         0.257412         0.436268        -2.581621
