19
Iteration:  1315charge 0 multiplicity 1
 C         0.317776         0.412099         0.475192
 C         1.171475        -0.138097        -0.624321
 O         2.073586        -1.238798        -0.217892
 C         2.669655        -0.121883        -0.904186
 C         2.524925        -0.174887        -2.383089
 C         2.999109        -1.462217        -3.162463
 O         1.901593        -2.328249        -3.315342
 C         0.643095        -1.779942        -2.661778
 C         0.948303        -0.422505        -2.144066
 H        -0.263325         1.151924         0.079334
 H        -0.361068        -0.283937         0.822103
 H         0.888027         1.044959         1.223830
 H         3.294183         0.506113        -0.427439
 H         2.722238         0.831906        -2.959548
 H         3.501202        -1.125536        -4.055802
 H         3.786402        -1.932655        -2.628002
 H        -0.053253        -1.848940        -3.502816
 H         0.240959        -2.540926        -1.860424
 H         0.299488         0.384611        -2.533563
