19
Iteration:   358charge 0 multiplicity 1
 C         0.207782         0.329273         0.355903
 C         1.211627        -0.218688        -0.619754
 O         2.255648        -1.079824        -0.132413
 C         2.621949         0.061611        -0.927902
 C         2.572289        -0.249413        -2.400162
 C         2.990053        -1.610977        -3.070729
 O         1.764767        -2.179904        -3.463158
 C         0.664499        -1.821954        -2.575198
 C         1.000767        -0.450927        -2.090194
 H        -0.013571         1.326358         0.393838
 H        -0.780542        -0.115341        -0.157059
 H         0.435891        -0.041841         1.319965
 H         3.186264         0.717939        -0.404916
 H         2.789710         0.607576        -3.054459
 H         3.454142        -1.483025        -3.990671
 H         3.548107        -2.308373        -2.321839
 H        -0.206736        -1.873193        -3.229135
 H         0.576801        -2.647309        -1.819232
 H         0.410776         0.387296        -2.503004
