19
Iteration:  3537charge 0 multiplicity 1
 C         0.420638         0.491947         0.449207
 C         1.181835        -0.166539        -0.618195
 O         1.899941        -1.356325        -0.269026
 C         2.695960        -0.277726        -0.703841
 C         2.527262        -0.275018        -2.253881
 C         3.056441        -1.508363        -3.012185
 O         1.851062        -2.139817        -3.511332
 C         0.670584        -1.673477        -2.790308
 C         0.963325        -0.308313        -2.181346
 H        -0.599803         0.120632         0.421786
 H         0.730269         0.130187         1.454119
 H         0.365465         1.599496         0.265560
 H         3.367840         0.142354        -0.030188
 H         2.709174         0.696531        -2.739284
 H         3.678801        -1.283714        -3.899085
 H         3.629795        -2.185859        -2.355652
 H        -0.080185        -1.777705        -3.655279
 H         0.300685        -2.526301        -2.132057
 H         0.631051         0.504556        -2.754816
