19
Iteration:  3445
 C         0.205836         0.364598         0.325997
 C         1.245430        -0.217271        -0.554715
 O         2.070545        -1.263020        -0.056271
 C         2.700215        -0.072594        -0.737610
 C         2.709857        -0.311414        -2.297224
 C         2.904870        -1.652657        -3.004506
 O         1.695767        -2.008151        -3.746533
 C         0.706918        -1.690572        -2.704272
 C         1.085578        -0.402436        -2.119619
 H        -0.324611         1.327759        -0.145258
 H        -0.553390        -0.384012         0.250607
 H         0.554647         0.690861         1.232139
 H         3.387511         0.382045        -0.007843
 H         3.019036         0.525933        -2.908484
 H         3.626460        -1.464193        -3.806103
 H         3.236134        -2.532975        -2.338602
 H        -0.290376        -1.657614        -3.104426
 H         0.664000        -2.424283        -1.885912
 H         0.662378         0.541669        -2.576374
