19
Iteration:  1538
 C         0.353415         0.420689         0.443208
 C         1.173750        -0.180706        -0.680734
 O         1.989857        -1.333534        -0.263698
 C         2.674604        -0.217945        -0.908150
 C         2.491761        -0.106204        -2.460802
 C         2.912085        -1.297377        -3.351500
 O         2.031598        -2.423304        -2.839759
 C         0.699459        -1.742348        -2.768411
 C         0.943221        -0.324390        -2.152667
 H         0.278241         1.577920         0.300160
 H        -0.628659         0.046996         0.406156
 H         0.716808         0.062968         1.319029
 H         3.444996         0.307152        -0.348243
 H         2.619632         1.040910        -2.837173
 H         2.714470        -1.113931        -4.464740
 H         3.914642        -1.641205        -3.076728
 H         0.189566        -1.798775        -3.715922
 H         0.188801        -2.442428        -1.999229
 H         0.192135         0.310791        -2.595291
