19
Iteration:  2793charge 0 multiplicity 1
 C         0.259234         0.124307         0.449533
 C         1.223633        -0.306787        -0.635889
 O         2.285820        -1.122835        -0.294281
 C         2.651131         0.155698        -0.931721
 C         2.539714        -0.229789        -2.409420
 C         2.921180        -1.536259        -3.047830
 O         1.779449        -2.399844        -2.939786
 C         0.619230        -1.559393        -2.976764
 C         0.979068        -0.390041        -2.169828
 H        -0.357599         0.927517         0.002435
 H        -0.511934        -0.605290         0.890188
 H         0.947571         0.462897         1.296213
 H         3.405937         0.838766        -0.365808
 H         2.660652         0.639718        -3.092518
 H         3.270317        -1.392269        -4.106840
 H         3.724210        -1.969256        -2.438233
 H         0.403335        -1.229038        -3.996522
 H        -0.312295        -2.136588        -2.554902
 H         0.361608         0.600156        -2.445229
