19
Iteration:  2571
 C         0.297644         0.312836         0.308651
 C         1.250678        -0.245576        -0.629476
 O         2.115879        -1.293495        -0.254842
 C         2.672223        -0.030256        -0.881687
 C         2.483173        -0.083235        -2.417172
 C         2.892324        -1.358857        -3.232824
 O         1.950272        -2.384189        -2.971242
 C         0.681557        -1.761642        -2.689760
 C         0.894790        -0.353383        -2.210679
 H         0.162055         1.419856         0.221464
 H        -0.640367        -0.283608         0.132881
 H         0.573795         0.241891         1.320423
 H         3.684809         0.401920        -0.322782
 H         2.800575         0.875197        -2.807150
 H         2.962923        -1.203104        -4.348007
 H         3.877048        -1.662046        -2.855756
 H        -0.041533        -1.901480        -3.596528
 H         0.302627        -2.373035        -1.704797
 H         0.143733         0.434334        -2.607951
