19
Iteration:   397charge 0 multiplicity 1
 C         0.266202         0.532331         0.253502
 C         1.209773        -0.202405        -0.568411
 O         2.267507        -1.111410        -0.040045
 C         2.645093        -0.027645        -0.897524
 C         2.479436        -0.284891        -2.376975
 C         2.913752        -1.523831        -3.030964
 O         1.752632        -2.047133        -3.654473
 C         0.798495        -2.040022        -2.623403
 C         0.916081        -0.575349        -2.021646
 H         0.325093         1.721740         0.277025
 H        -0.658528         0.170214         0.058688
 H         0.278083         0.090459         1.283022
 H         3.351755         0.836657        -0.455425
 H         2.606888         0.658194        -2.891382
 H         3.835926        -1.489145        -3.701517
 H         3.165205        -2.213168        -2.266293
 H        -0.201198        -2.249538        -2.994948
 H         0.986150        -2.760637        -1.814140
 H         0.194081         0.114499        -2.437036
