19
Iteration:  3044charge 0 multiplicity 1
 C         0.221730         0.350866         0.484096
 C         1.208768        -0.112376        -0.593388
 O         2.135393        -1.206777        -0.213977
 C         2.675567        -0.035543        -0.896458
 C         2.518548        -0.211686        -2.385446
 C         2.973746        -1.587671        -2.975567
 O         1.811692        -2.235821        -3.538154
 C         0.722351        -1.823960        -2.695579
 C         0.982812        -0.346018        -2.128406
 H        -0.438060         0.862127        -0.142863
 H        -0.144985        -0.530195         1.057616
 H         0.645789         1.118613         1.295693
 H         3.457584         0.625038        -0.393623
 H         2.720658         0.659374        -3.013581
 H         3.688167        -1.442028        -3.772112
 H         3.520777        -2.114298        -2.066702
 H        -0.142782        -1.807048        -3.368015
 H         0.596958        -2.532714        -1.920090
 H         0.248958         0.314071        -2.593633
