19
Iteration:   522
 C         0.220691         0.200449         0.331827
 C         1.284156        -0.183063        -0.653924
 O         2.187669        -1.148870        -0.232929
 C         2.764844         0.030319        -0.931311
 C         2.491574        -0.173848        -2.460754
 C         2.995343        -1.508455        -3.112531
 O         1.842357        -2.351557        -3.102974
 C         0.520802        -1.704087        -2.672873
 C         0.969497        -0.332236        -2.128831
 H        -0.666445         0.503143        -0.049602
 H        -0.083260        -0.888883         0.704610
 H         0.591608         0.947564         1.006533
 H         3.549916         0.328929        -0.230704
 H         2.906331         0.667430        -3.107956
 H         3.253220        -1.393747        -4.130209
 H         3.821422        -1.874167        -2.494177
 H        -0.056739        -1.547746        -3.617089
 H        -0.027870        -2.259268        -1.889305
 H         0.222953         0.450023        -2.501276
