19
Iteration:  3751charge 0 multiplicity 1
 C         0.248276         0.595296         0.312065
 C         1.251148        -0.220355        -0.529232
 O         1.854584        -1.477787        -0.160551
 C         2.734832        -0.398707        -0.708782
 C         2.705026        -0.369930        -2.219731
 C         3.019602        -1.511809        -3.120733
 O         1.724684        -1.913966        -3.701394
 C         0.729884        -1.671721        -2.718788
 C         1.080093        -0.331889        -2.028416
 H         0.570025         1.604982         0.756535
 H        -0.481882         0.990263        -0.415915
 H        -0.349562         0.028510         0.963489
 H         3.469043        -0.099298         0.007012
 H         3.003284         0.617411        -2.508525
 H         3.670917        -1.299583        -3.925373
 H         3.420965        -2.277722        -2.483056
 H        -0.204809        -1.617503        -3.214354
 H         0.714891        -2.458616        -1.881173
 H         0.633657         0.558148        -2.583529
