19
Iteration:  3962charge 0 multiplicity 1
 C         0.333636         0.364986         0.406657
 C         1.128866        -0.252450        -0.642522
 O         1.817669        -1.398868        -0.271340
 C         2.697442        -0.387847        -0.704712
 C         2.729388        -0.334626        -2.248743
 C         2.961922        -1.622074        -2.889158
 O         1.840220        -1.955562        -3.587440
 C         0.633913        -1.466651        -2.864761
 C         1.140667        -0.179981        -2.131793
 H        -0.105032        -0.513353         1.005594
 H         0.913079         1.039256         1.078305
 H        -0.391425         1.108911        -0.070091
 H         3.525266        -0.145815         0.057462
 H         3.158792         0.600843        -2.662329
 H         3.861684        -1.679897        -3.613775
 H         3.076062        -2.530261        -2.155738
 H        -0.138056        -1.411597        -3.645812
 H         0.382609        -2.159268        -2.052604
 H         0.619911         0.782233        -2.544312
