19
Iteration:  1318charge 0 multiplicity 1
 C         0.335076         0.392789         0.471111
 C         1.179484        -0.144227        -0.607614
 O         2.067927        -1.209623        -0.197775
 C         2.669473        -0.108650        -0.888483
 C         2.511790        -0.191302        -2.420634
 C         2.959598        -1.456820        -3.144555
 O         1.896216        -2.331211        -3.340279
 C         0.665925        -1.790933        -2.691536
 C         0.963005        -0.439168        -2.114295
 H        -0.355730         1.273232         0.004657
 H        -0.409237        -0.284018         0.861504
 H         0.937623         1.033949         1.221642
 H         3.327731         0.593591        -0.385504
 H         2.818114         0.746839        -2.942382
 H         3.540784        -1.094060        -4.023593
 H         3.753223        -1.972787        -2.580646
 H        -0.033423        -1.805460        -3.552640
 H         0.254211        -2.471893        -1.958100
 H         0.277434         0.358315        -2.514485
