19
Iteration:   663charge 0 multiplicity 1
 C         0.174203         0.266730         0.313206
 C         1.287298        -0.109484        -0.665927
 O         2.108516        -1.246951        -0.229150
 C         2.719886        -0.027962        -0.919067
 C         2.531599        -0.206019        -2.441971
 C         2.929078        -1.376914        -3.221947
 O         1.871942        -2.398531        -3.114638
 C         0.636978        -1.774067        -2.560043
 C         1.017558        -0.342637        -2.111402
 H        -0.253951         1.311376         0.120187
 H        -0.597607        -0.414533         0.364474
 H         0.692853         0.464819         1.287928
 H         3.576163         0.406535        -0.321577
 H         2.843988         0.847345        -2.888809
 H         2.978655        -1.013890        -4.281263
 H         3.866930        -1.838428        -2.891830
 H         0.049232        -1.813259        -3.501185
 H         0.168349        -2.415313        -1.735934
 H         0.381193         0.502766        -2.589157
