19
Iteration:  3805charge 0 multiplicity 1
 C         0.302372         0.567152         0.469726
 C         1.189090        -0.216844        -0.553559
 O         1.815483        -1.453168        -0.169822
 C         2.695888        -0.302930        -0.625995
 C         2.638298        -0.378810        -2.250491
 C         3.037477        -1.584534        -3.103749
 O         1.842252        -1.987751        -3.707787
 C         0.682934        -1.586029        -2.821193
 C         1.054478        -0.315441        -2.148159
 H         0.396580         1.705963         0.210616
 H        -0.762850         0.261885         0.566295
 H         0.787464         0.543565         1.435554
 H         3.514752        -0.264536         0.030533
 H         3.079036         0.524709        -2.639167
 H         3.751957        -1.329125        -3.867073
 H         3.558775        -2.363232        -2.403446
 H        -0.141995        -1.412797        -3.407062
 H         0.581998        -2.358811        -2.072082
 H         0.441045         0.426983        -2.654435
