19
Iteration:  4338
 C         0.305058         0.590351         0.254940
 C         1.219379        -0.244376        -0.612701
 O         1.780420        -1.526483        -0.028594
 C         2.679002        -0.422493        -0.552615
 C         2.706097        -0.449927        -2.095407
 C         2.964125        -1.713941        -2.995731
 O         1.850243        -1.693721        -3.822563
 C         0.658283        -1.584551        -2.951517
 C         1.122642        -0.248515        -2.098500
 H         0.799166         1.063410         1.190758
 H        -0.170895         1.309403        -0.348045
 H        -0.611868         0.039896         0.623489
 H         3.532141        -0.169989         0.126572
 H         3.298844         0.456994        -2.332334
 H         3.886755        -1.626555        -3.572590
 H         3.034788        -2.550353        -2.307153
 H        -0.195159        -1.338294        -3.559625
 H         0.732381        -2.483578        -2.219251
 H         0.686281         0.580873        -2.606173
