19
Iteration:  2536
 C         0.137910         0.188435         0.296266
 C         1.289553        -0.244419        -0.607498
 O         2.290712        -1.242883        -0.308679
 C         2.684702         0.062166        -0.912318
 C         2.543368        -0.111586        -2.410788
 C         2.836630        -1.407053        -3.190773
 O         1.854142        -2.448747        -2.856041
 C         0.651903        -1.650355        -2.772054
 C         1.007763        -0.313242        -2.154584
 H        -0.293004         1.239857        -0.013282
 H        -0.680979        -0.423697         0.095914
 H         0.365882         0.004603         1.380438
 H         3.657221         0.602798        -0.508863
 H         2.864482         0.839247        -2.938542
 H         2.779638        -1.235919        -4.308212
 H         3.838444        -1.859902        -2.939513
 H         0.137285        -1.630908        -3.818718
 H        -0.103365        -2.285580        -2.084200
 H         0.255787         0.395774        -2.421580
