19
Iteration:    45charge 0 multiplicity 1
 C         0.319725         0.341320         0.446329
 C         1.148812        -0.094424        -0.719636
 O         2.189939        -1.078869        -0.240925
 C         2.602962         0.164897        -0.853668
 C         2.539779        -0.261041        -2.328821
 C         2.983189        -1.638725        -2.933421
 O         1.749189        -2.186421        -3.554092
 C         0.719332        -1.959557        -2.600563
 C         0.953926        -0.471069        -2.193889
 H         0.821237         1.173456         0.993840
 H        -0.699991         0.549394         0.330229
 H         0.341651        -0.505540         1.137231
 H         3.389938         0.754886        -0.306659
 H         2.828343         0.540853        -3.007112
 H         3.721018        -1.524690        -3.699383
 H         3.393439        -2.288288        -2.166003
 H        -0.254033        -2.135285        -3.110569
 H         0.796235        -2.631238        -1.726500
 H         0.368076         0.218669        -2.765976
