19
Iteration:    67
 C         0.247873         0.401361         0.346968
 C         1.221012        -0.303566        -0.567309
 O         2.287584        -1.100253        -0.117963
 C         2.632944         0.043292        -0.911747
 C         2.482792        -0.239743        -2.452416
 C         2.970447        -1.553752        -3.007283
 O         1.787147        -2.220480        -3.454899
 C         0.644484        -1.837101        -2.676982
 C         0.990345        -0.476820        -2.125622
 H         0.514324         1.461097         0.625946
 H        -0.673310         0.338490        -0.127100
 H         0.021182        -0.111042         1.290155
 H         3.155147         0.927634        -0.387382
 H         2.736205         0.623573        -3.065166
 H         3.675953        -1.520554        -3.820930
 H         3.468057        -2.051463        -2.178347
 H        -0.248425        -1.846401        -3.363907
 H         0.466186        -2.543343        -1.849340
 H         0.365540         0.323032        -2.460203
