19
Iteration:  4828
 C         0.203962         0.421618         0.215955
 C         1.269512        -0.264327        -0.590657
 O         1.745388        -1.573896        -0.380035
 C         2.660233        -0.470479        -0.603721
 C         2.827320        -0.259836        -2.077383
 C         3.031733        -1.538814        -3.043722
 O         1.714458        -2.167571        -3.268065
 C         0.623540        -1.262866        -2.940234
 C         1.263195        -0.091744        -2.136839
 H         0.060678        -0.167220         1.229164
 H         0.325077         1.404520         0.419422
 H        -0.740285         0.292755        -0.416658
 H         3.612178        -0.302886         0.086561
 H         3.439756         0.531630        -2.263143
 H         3.451776        -1.185651        -4.020548
 H         3.806643        -2.317426        -2.747222
 H         0.302397        -0.893579        -4.025696
 H        -0.123449        -1.970493        -2.579983
 H         0.889061         0.931233        -2.419093
