19
Iteration:  1453
 C         0.231976         0.357494         0.367981
 C         1.192727        -0.202340        -0.651914
 O         2.180310        -1.221769        -0.215687
 C         2.736321        -0.088425        -0.799227
 C         2.557618        -0.206781        -2.412948
 C         2.939095        -1.421123        -3.095995
 O         1.861824        -2.323055        -3.306184
 C         0.591485        -1.783523        -2.614393
 C         0.974830        -0.340995        -2.210076
 H        -0.349620         1.238731        -0.074440
 H        -0.536537        -0.414183         0.666219
 H         0.724070         0.802396         1.189742
 H         3.449699         0.500799        -0.273590
 H         2.667254         0.680616        -2.859322
 H         3.531323        -1.253109        -3.991892
 H         3.702469        -1.940115        -2.527078
 H        -0.192339        -1.639877        -3.373320
 H         0.212511        -2.510026        -1.857595
 H         0.382466         0.348809        -2.780082
