19
Iteration:  2676charge 0 multiplicity 1
 C         0.214975         0.454965         0.298370
 C         1.199202        -0.221533        -0.598811
 O         2.127936        -1.270108        -0.194757
 C         2.709046        -0.178032        -0.802851
 C         2.479764        -0.131405        -2.391312
 C         2.879131        -1.376291        -3.322493
 O         1.950660        -2.376242        -3.118542
 C         0.735364        -1.771140        -2.678108
 C         0.993749        -0.386898        -2.107149
 H        -0.359693         1.293092        -0.293392
 H        -0.611169        -0.274098         0.459558
 H         0.769551         0.690340         1.332016
 H         3.602758         0.329126        -0.265591
 H         2.378270         0.923025        -2.868882
 H         2.891771        -1.037008        -4.346602
 H         3.891643        -1.794498        -2.997284
 H         0.073217        -1.604165        -3.511243
 H         0.237901        -2.367510        -2.004540
 H         0.291039         0.369293        -2.482345
