19
Iteration:   187charge 0 multiplicity 1
 C         0.265154         0.371626         0.415299
 C         1.177427        -0.219481        -0.676373
 O         2.152772        -1.375948        -0.348561
 C         2.656640        -0.141891        -0.903069
 C         2.484099        -0.053157        -2.462545
 C         2.950074        -1.419913        -3.101969
 O         1.905196        -2.363142        -2.974254
 C         0.626849        -1.696344        -2.742108
 C         1.004781        -0.315697        -2.217332
 H        -0.613508         0.934183        -0.047451
 H        -0.022176        -0.327203         1.115823
 H         0.799157         1.203925         0.987379
 H         3.603029         0.350062        -0.330136
 H         2.834321         0.914778        -2.835942
 H         3.224275        -1.391614        -4.160079
 H         3.806797        -1.776655        -2.630945
 H        -0.098816        -1.807528        -3.499915
 H         0.202357        -2.200560        -1.868113
 H         0.307884         0.485950        -2.536150
