19
Iteration:  1679charge 0 multiplicity 1
 C         0.285054         0.371199         0.388469
 C         1.243782        -0.219996        -0.530535
 O         2.290746        -1.099016        -0.114211
 C         2.649162         0.124296        -0.886840
 C         2.479867        -0.278560        -2.310522
 C         2.921225        -1.662171        -2.928266
 O         1.787772        -2.097641        -3.685967
 C         0.643066        -1.873642        -2.781490
 C         0.981836        -0.521973        -2.054650
 H        -0.573453         1.068621        -0.239530
 H        -0.223596        -0.400567         0.895467
 H         0.745050         0.858816         1.163705
 H         3.231715         0.907191        -0.565196
 H         2.590514         0.564450        -3.127338
 H         3.836091        -1.831014        -3.500670
 H         2.959787        -2.327882        -1.974943
 H        -0.213347        -1.777567        -3.367659
 H         0.462789        -2.618065        -2.022196
 H         0.437229         0.313832        -2.451943
