19
Iteration:  3676charge 0 multiplicity 1
 C         0.259675         0.364547         0.436904
 C         1.192450        -0.209174        -0.567630
 O         2.161100        -1.391925        -0.242121
 C         2.680234        -0.173872        -0.778377
 C         2.572324        -0.320300        -2.270063
 C         2.928320        -1.733039        -2.775378
 O         1.802888        -2.038543        -3.655090
 C         0.621270        -1.468044        -2.943291
 C         1.060001        -0.269712        -2.153350
 H         0.363203        -0.040715         1.528270
 H         0.251445         1.430662         0.680768
 H        -0.635220         0.118744         0.049144
 H         3.373719         0.397350        -0.240487
 H         3.096235         0.490715        -2.720850
 H         3.851264        -1.736325        -3.328073
 H         2.936575        -2.445349        -1.951428
 H        -0.212137        -1.410917        -3.589807
 H         0.193842        -2.039628        -2.088242
 H         0.537711         0.710700        -2.616725
