19
Iteration:  4208
 C         0.127552         0.251038         0.237479
 C         1.253820        -0.240840        -0.647623
 O         1.882045        -1.416612        -0.163094
 C         2.771284        -0.394429        -0.597120
 C         2.793800        -0.334997        -2.233546
 C         2.977022        -1.654396        -2.906812
 O         1.686242        -2.041291        -3.514789
 C         0.553240        -1.297968        -2.934821
 C         1.281788        -0.095089        -2.162637
 H         0.371800        -0.232067         1.257881
 H         0.171586         1.296439         0.314294
 H        -0.812273        -0.259895        -0.032713
 H         3.625639        -0.068541         0.191472
 H         3.466675         0.472897        -2.712561
 H         3.760361        -1.458647        -3.676069
 H         3.361431        -2.472250        -2.176680
 H        -0.172994        -0.953794        -3.751920
 H        -0.147278        -1.834259        -2.342567
 H         1.119286         0.909491        -2.519583
