19
Iteration:  3395charge 0 multiplicity 1
 C         0.301116         0.349343         0.427331
 C         1.227669        -0.222185        -0.563511
 O         2.042295        -1.362480        -0.283870
 C         2.695573        -0.100879        -0.795089
 C         2.535130        -0.155032        -2.351252
 C         2.940406        -1.590642        -2.903326
 O         1.822197        -2.200674        -3.449002
 C         0.674240        -1.674667        -2.825384
 C         1.004364        -0.271015        -2.210869
 H         0.704503         1.301435         0.631959
 H        -0.768545         0.424309        -0.005292
 H         0.411046        -0.262361         1.501277
 H         3.537283         0.450773        -0.190062
 H         2.926954         0.747696        -2.874680
 H         3.660898        -1.586542        -3.747350
 H         3.278391        -2.165683        -2.020449
 H         0.026818        -1.556007        -3.798858
 H         0.302714        -2.143355        -1.887450
 H         0.490595         0.649080        -2.458511
