19
Iteration:  2850charge 0 multiplicity 1
 C         0.173906         0.194344         0.367509
 C         1.187118        -0.245953        -0.634295
 O         2.253157        -1.192726        -0.272937
 C         2.682842         0.043746        -0.875839
 C         2.640978        -0.162555        -2.441212
 C         2.959191        -1.490470        -3.081013
 O         1.735950        -2.357620        -3.146638
 C         0.614187        -1.686971        -2.734469
 C         1.059415        -0.365106        -2.176785
 H        -0.571162         0.780955        -0.095542
 H        -0.235098        -0.636947         0.974816
 H         0.740809         1.017875         1.026346
 H         3.268241         0.802717        -0.203463
 H         2.828275         0.812122        -2.984766
 H         3.295339        -1.261644        -4.136367
 H         3.787065        -2.044268        -2.538204
 H        -0.116117        -1.608281        -3.518091
 H         0.074294        -2.143394        -1.840870
 H         0.246189         0.507520        -2.288021
