19
Iteration:  3653
 C         0.252766         0.205576         0.319624
 C         1.238153        -0.250545        -0.608656
 O         2.079690        -1.335878        -0.199223
 C         2.770319        -0.078761        -0.680232
 C         2.706661        -0.270197        -2.335645
 C         2.914654        -1.642400        -2.822158
 O         1.709268        -2.054919        -3.529366
 C         0.566629        -1.527988        -2.979930
 C         1.086541        -0.298303        -2.100449
 H         0.259163        -0.172905         1.387271
 H         0.658210         1.170079         0.623210
 H        -0.657636         0.378877        -0.078599
 H         3.541757         0.390661         0.020796
 H         3.044123         0.526812        -2.984868
 H         3.708435        -1.867321        -3.497859
 H         2.982244        -2.269432        -1.969143
 H        -0.131382        -1.225410        -3.714594
 H        -0.102965        -2.159090        -2.325922
 H         0.594181         0.705089        -2.552270
