19
Iteration:  2556charge 0 multiplicity 1
 C         0.181957         0.249977         0.261548
 C         1.254356        -0.253557        -0.708133
 O         2.252217        -1.263881        -0.271317
 C         2.715211        -0.083682        -0.854720
 C         2.471220        -0.154498        -2.456739
 C         2.919702        -1.357460        -3.235502
 O         1.902078        -2.302221        -2.872212
 C         0.611576        -1.753238        -2.655855
 C         0.966152        -0.323301        -2.160886
 H         0.067937         1.346791        -0.106960
 H        -0.769590        -0.178197         0.181845
 H         0.495807        -0.026862         1.336539
 H         3.304671         0.585695        -0.265276
 H         2.692523         0.811770        -3.034497
 H         2.950993        -1.054120        -4.329323
 H         3.896997        -1.876920        -2.977941
 H        -0.018924        -1.680022        -3.599511
 H         0.046640        -2.363917        -1.930130
 H         0.381692         0.469212        -2.470132
