19
Iteration:   457
 C         0.370655         0.559170         0.392319
 C         1.225692        -0.174063        -0.564706
 O         2.037497        -1.177071        -0.116066
 C         2.635206        -0.106092        -0.848012
 C         2.388999        -0.242339        -2.421358
 C         2.967677        -1.421883        -3.150866
 O         1.899316        -2.219993        -3.486390
 C         0.764884        -1.938430        -2.523333
 C         0.917797        -0.495040        -2.222831
 H        -0.303882         1.218751         0.004620
 H        -0.362773        -0.374444         0.770766
 H         0.980542         0.937719         1.238638
 H         3.534864         0.296714        -0.481878
 H         2.657150         0.753359        -2.896829
 H         3.569161        -1.118387        -4.010551
 H         3.660152        -2.062228        -2.490053
 H        -0.074904        -2.152957        -3.250298
 H         0.865606        -2.625875        -1.667619
 H         0.178805         0.180610        -2.745877
