19
Iteration:  4229
 C         0.233543         0.348054         0.214277
 C         1.278876        -0.178563        -0.626954
 O         1.829324        -1.545610        -0.289821
 C         2.714329        -0.373508        -0.642684
 C         2.762918        -0.297572        -2.155573
 C         2.959824        -1.664756        -2.946031
 O         1.713845        -2.000091        -3.467405
 C         0.662473        -1.326514        -2.856417
 C         1.179447        -0.120474        -2.145596
 H         0.221791        -0.243776         1.184965
 H         0.274390         1.390779         0.362726
 H        -0.710418        -0.039422        -0.247298
 H         3.537014        -0.143116         0.198917
 H         3.451156         0.560390        -2.383182
 H         3.745540        -1.621542        -3.747811
 H         3.306174        -2.404939        -2.113655
 H        -0.145701        -1.171135        -3.611747
 H         0.231304        -2.133583        -2.199664
 H         0.839589         0.772041        -2.658243
