19
Iteration:  3309
 C         0.192358         0.319175         0.283658
 C         1.242917        -0.246232        -0.635166
 O         2.052206        -1.276343        -0.201927
 C         2.697454        -0.088275        -0.721858
 C         2.664000        -0.280760        -2.289613
 C         2.994406        -1.411371        -3.214021
 O         1.776175        -2.300954        -3.280910
 C         0.589353        -1.621840        -2.758340
 C         1.089151        -0.315269        -2.093504
 H         0.646039         0.812046         1.096776
 H        -0.412043         1.107393        -0.261853
 H        -0.398122        -0.583342         0.877521
 H         3.551619         0.237568         0.033995
 H         3.165081         0.600741        -2.821245
 H         3.248155        -1.002802        -4.252729
 H         3.856065        -2.172867        -2.970111
 H        -0.044788        -1.538117        -3.559301
 H        -0.003371        -2.167764        -2.046059
 H         0.449191         0.546620        -2.451740
