19
Iteration:  2805charge 0 multiplicity 1
 C         0.175616         0.144759         0.471930
 C         1.216836        -0.246265        -0.625270
 O         2.326842        -1.093800        -0.195175
 C         2.719543         0.047636        -0.948738
 C         2.501518        -0.120400        -2.469856
 C         2.920716        -1.553927        -3.039383
 O         1.780743        -2.448476        -3.016972
 C         0.592859        -1.609250        -2.972892
 C         0.991001        -0.335762        -2.162103
 H        -0.546940         0.859887         0.195516
 H        -0.240959        -0.854008         0.809628
 H         0.648707         0.698879         1.409320
 H         3.583088         0.652239        -0.370088
 H         2.896180         0.775342        -3.063244
 H         3.233948        -1.479104        -4.131987
 H         3.754259        -2.086841        -2.487664
 H         0.354019        -1.250696        -4.005172
 H        -0.254438        -2.333577        -2.679645
 H         0.387177         0.642724        -2.545187
