19
Iteration:  1685charge 0 multiplicity 1
 C         0.258159         0.374739         0.380805
 C         1.257386        -0.217408        -0.541635
 O         2.263034        -1.085116        -0.093638
 C         2.625056         0.106370        -0.899265
 C         2.491036        -0.243679        -2.315842
 C         2.928168        -1.617939        -2.930168
 O         1.773442        -2.161974        -3.714669
 C         0.654932        -1.856668        -2.751538
 C         0.998173        -0.545746        -2.037177
 H        -0.308690         0.996615        -0.129344
 H        -0.384063        -0.467951         0.835855
 H         0.820404         0.989614         1.217359
 H         3.564689         0.787863        -0.625625
 H         2.571024         0.581076        -2.931508
 H         3.883408        -1.726639        -3.528699
 H         3.136324        -2.364249        -2.191522
 H        -0.243401        -1.641701        -3.467006
 H         0.384868        -2.688209        -2.015930
 H         0.389303         0.370829        -2.332242
