19
Iteration:  3509charge 0 multiplicity 1
 C         0.341309         0.524042         0.451944
 C         1.127439        -0.267710        -0.591108
 O         1.974269        -1.326502        -0.097230
 C         2.632724        -0.224330        -0.699122
 C         2.632477        -0.243207        -2.316008
 C         2.971199        -1.574453        -3.084564
 O         1.804345        -2.070293        -3.622472
 C         0.734302        -1.694144        -2.810293
 C         1.057676        -0.391862        -2.154418
 H        -0.780231         0.690576         0.067053
 H         0.244523         0.045928         1.410034
 H         0.802046         1.538205         0.609288
 H         3.346604         0.314534        -0.010474
 H         2.933427         0.667933        -2.847424
 H         3.652912        -1.423985        -3.933582
 H         3.450699        -2.334241        -2.382314
 H        -0.095522        -1.762998        -3.443990
 H         0.596513        -2.477724        -2.097557
 H         0.369281         0.422128        -2.650304
