19
Iteration:  4293charge 0 multiplicity 1
 C         0.444344         0.518216         0.380736
 C         1.149289        -0.224579        -0.578606
 O         1.690324        -1.437160        -0.118495
 C         2.638651        -0.481304        -0.576589
 C         2.674422        -0.384629        -2.087474
 C         3.082336        -1.582937        -2.964471
 O         1.865037        -1.923685        -3.746839
 C         0.675978        -1.492336        -2.982527
 C         1.067979        -0.276853        -2.266706
 H         0.936241         0.437381         1.366088
 H         0.177665         1.540167         0.170901
 H        -0.597550         0.057974         0.646705
 H         3.403600         0.001289         0.210118
 H         3.104129         0.594092        -2.269398
 H         3.867165        -1.600812        -3.741133
 H         3.160882        -2.486541        -2.409616
 H        -0.082185        -1.291219        -3.696721
 H         0.405521        -2.223402        -2.056557
 H         0.877879         0.709447        -2.712443
