19
Iteration:  3010charge 0 multiplicity 1
 C         0.265252         0.339171         0.296488
 C         1.186245        -0.196286        -0.607204
 O         2.143973        -1.093189        -0.033753
 C         2.680715         0.013828        -0.833724
 C         2.537295        -0.293905        -2.322624
 C         2.960112        -1.576680        -3.084509
 O         1.718976        -2.084770        -3.628519
 C         0.727892        -1.882214        -2.611777
 C         1.073026        -0.489558        -2.070041
 H        -0.157962         1.298093        -0.045311
 H        -0.742493        -0.163010         0.276507
 H         0.672735         0.468855         1.352334
 H         3.392056         0.902978        -0.388346
 H         2.823634         0.657457        -2.777619
 H         3.526341        -1.385023        -4.013955
 H         3.503779        -2.475770        -2.513056
 H        -0.288765        -1.999887        -3.141798
 H         0.843689        -2.707944        -2.003738
 H         0.402042         0.160784        -2.580536
