19
Iteration:  3619charge 0 multiplicity 1
 C         0.074804         0.231413         0.392868
 C         1.258233        -0.160261        -0.602304
 O         2.110066        -1.318448        -0.177850
 C         2.719281        -0.150968        -0.705573
 C         2.693520        -0.334663        -2.318399
 C         2.953255        -1.679031        -3.048209
 O         1.690130        -2.183524        -3.468341
 C         0.655186        -1.445564        -2.875258
 C         1.131098        -0.171572        -2.106510
 H        -0.164295        -0.591267         1.061219
 H         0.450291         1.163483         0.720706
 H        -0.830536         0.505980        -0.077025
 H         3.628543         0.259613        -0.048932
 H         3.285408         0.454036        -2.806474
 H         3.595302        -1.505284        -3.896629
 H         3.441060        -2.320347        -2.369699
 H         0.028333        -1.298544        -3.701416
 H         0.235369        -2.033152        -2.034855
 H         0.648217         0.796666        -2.580278
