19
Iteration:  1744charge 0 multiplicity 1
 C         0.259648         0.403305         0.391957
 C         1.215540        -0.161591        -0.655752
 O         2.046343        -1.292754        -0.327102
 C         2.728411        -0.048372        -0.791302
 C         2.499613        -0.136896        -2.419849
 C         2.954660        -1.459547        -3.180782
 O         1.818558        -2.260403        -3.331014
 C         0.756115        -1.880480        -2.501358
 C         1.012566        -0.367287        -2.150520
 H         0.036807         1.533115         0.190794
 H        -0.663369        -0.063534         0.395556
 H         0.621682         0.364239         1.329583
 H         3.371271         0.409866        -0.183533
 H         2.603890         0.896665        -2.823854
 H         3.330488        -1.220182        -4.186112
 H         3.622052        -2.020571        -2.472776
 H        -0.059254        -2.207568        -3.091126
 H         0.763458        -2.537891        -1.595111
 H         0.364520         0.377198        -2.580578
