19
Iteration:  2160
 C         0.302966         0.162130         0.449143
 C         1.200318        -0.236221        -0.666614
 O         2.303230        -1.170434        -0.317808
 C         2.652951         0.110921        -0.946683
 C         2.443385        -0.145597        -2.494751
 C         2.960158        -1.546548        -2.857995
 O         1.845751        -2.399828        -3.056541
 C         0.586009        -1.633693        -2.914121
 C         0.948394        -0.334699        -2.172580
 H         0.027170         1.304179         0.376448
 H        -0.764616        -0.359811         0.358443
 H         0.804250        -0.101803         1.360757
 H         3.411582         0.792114        -0.379910
 H         2.686597         0.628914        -3.266795
 H         3.487543        -1.482692        -3.884592
 H         3.520873        -2.043504        -2.026823
 H        -0.053315        -1.470556        -3.851893
 H        -0.051322        -2.428700        -2.285909
 H         0.374059         0.641048        -2.394112
