19
Iteration:   391
 C         0.252129         0.528142         0.270419
 C         1.233524        -0.187454        -0.579273
 O         2.304602        -1.081920        -0.063335
 C         2.684592        -0.047025        -0.872065
 C         2.460649        -0.232505        -2.328949
 C         2.836664        -1.540898        -3.028827
 O         1.772889        -2.103409        -3.678266
 C         0.788438        -2.020086        -2.617196
 C         0.950799        -0.555206        -2.029398
 H         0.175129         1.542413         0.289695
 H        -0.834853         0.042446        -0.148387
 H         0.144278         0.081926         1.261170
 H         3.291799         0.609634        -0.416271
 H         2.558150         0.694394        -2.925192
 H         3.696289        -1.474364        -3.637301
 H         3.253923        -2.231162        -2.182167
 H        -0.247117        -2.044993        -3.005807
 H         0.994398        -2.796971        -1.838526
 H         0.203682         0.085385        -2.546726
