19
Iteration:   197charge 0 multiplicity 1
 C         0.290581         0.385198         0.372029
 C         1.219582        -0.260836        -0.665872
 O         2.171359        -1.343546        -0.310286
 C         2.641694        -0.085564        -0.862808
 C         2.541953        -0.164157        -2.406310
 C         2.915990        -1.387689        -3.149598
 O         1.861375        -2.287977        -2.944417
 C         0.630408        -1.741511        -2.747043
 C         0.993713        -0.351187        -2.243383
 H        -0.690850         0.704003        -0.048413
 H        -0.028606        -0.343628         1.090404
 H         0.831622         1.216097         0.899292
 H         3.401550         0.422446        -0.232041
 H         2.823509         0.715859        -2.984867
 H         2.996363        -1.059183        -4.210810
 H         3.779688        -1.896157        -2.776913
 H         0.105452        -1.582475        -3.681126
 H         0.053542        -2.410376        -2.105091
 H         0.350641         0.471013        -2.659734
