19
Iteration:  2975
 C         0.136651         0.546971         0.300456
 C         1.237780        -0.157579        -0.585440
 O         2.303297        -1.190753        -0.054923
 C         2.667150        -0.122296        -0.796837
 C         2.426364        -0.256395        -2.325341
 C         2.923812        -1.516057        -3.048075
 O         1.746617        -2.040761        -3.692013
 C         0.806023        -2.009442        -2.619665
 C         0.959892        -0.532529        -2.090269
 H         0.372964         1.658825         0.215852
 H        -0.837912         0.205768        -0.086015
 H         0.155014         0.323282         1.307201
 H         3.514242         0.622357        -0.531515
 H         2.828148         0.644934        -2.786731
 H         3.716534        -1.268929        -3.833952
 H         3.337154        -2.327544        -2.304568
 H        -0.305624        -2.281852        -2.866779
 H         1.116290        -2.628643        -1.841995
 H         0.361969         0.201815        -2.576035
