19
Iteration:  1228
 C         0.316493         0.314575         0.368850
 C         1.239576        -0.219841        -0.639638
 O         2.156143        -1.253190        -0.199590
 C         2.652924         0.018110        -0.834223
 C         2.523583        -0.194380        -2.384241
 C         2.908642        -1.346080        -3.302468
 O         1.879443        -2.494077        -2.868610
 C         0.654932        -1.672523        -2.906058
 C         0.965251        -0.388633        -2.170237
 H         0.305315         1.496077         0.269055
 H        -0.724328         0.047412         0.225465
 H         0.681284        -0.061571         1.497887
 H         3.315399         0.515420        -0.280253
 H         2.671122         0.689510        -3.111406
 H         2.801561        -1.071603        -4.408202
 H         3.880661        -1.750184        -3.194079
 H         0.411916        -1.413640        -3.943195
 H        -0.284577        -2.160080        -2.471848
 H         0.191830         0.389625        -2.286623
