19
Iteration:  2158charge 0 multiplicity 1
 C         0.319683         0.190852         0.456649
 C         1.206773        -0.243451        -0.663962
 O         2.294030        -1.172396        -0.309865
 C         2.648556         0.112733        -0.954554
 C         2.436147        -0.157020        -2.489423
 C         2.971951        -1.555289        -2.881296
 O         1.848222        -2.399653        -3.057415
 C         0.590156        -1.625171        -2.913405
 C         0.933699        -0.338088        -2.166766
 H        -0.022169         1.186355         0.355233
 H        -0.756111        -0.379768         0.288974
 H         0.715321        -0.125301         1.381396
 H         3.463337         0.808444        -0.340547
 H         2.644672         0.582236        -3.261617
 H         3.488930        -1.480506        -3.841946
 H         3.563070        -1.976485        -2.047538
 H         0.009238        -1.436688        -3.857258
 H        -0.026643        -2.413227        -2.312329
 H         0.317654         0.643944        -2.361872
