19
Iteration:  3021charge 0 multiplicity 1
 C         0.182504         0.356403         0.359929
 C         1.256985        -0.140337        -0.646574
 O         2.172237        -1.095638        -0.021592
 C         2.716940        -0.042986        -0.826473
 C         2.551048        -0.310935        -2.332862
 C         2.957859        -1.536249        -3.061151
 O         1.738964        -2.119729        -3.612025
 C         0.714844        -1.895558        -2.657034
 C         0.959779        -0.472623        -2.162592
 H        -0.236357         1.293390         0.019339
 H        -0.468565        -0.520090         0.562480
 H         0.736387         0.534727         1.349430
 H         3.532787         0.616645        -0.271232
 H         2.711165         0.538780        -2.991933
 H         3.640498        -1.273137        -3.878504
 H         3.514827        -2.234091        -2.290756
 H        -0.268801        -1.937657        -3.214903
 H         0.687197        -2.519591        -1.811620
 H         0.439307         0.334655        -2.650111
