19
Iteration:  4455charge 0 multiplicity 1
 C         0.189109         0.434446         0.462732
 C         1.176847        -0.237642        -0.645401
 O         1.833810        -1.523061        -0.383988
 C         2.693338        -0.414516        -0.625335
 C         2.771134        -0.318542        -2.170691
 C         3.018305        -1.676599        -2.842419
 O         1.733673        -2.084487        -3.430084
 C         0.703364        -1.276993        -3.048173
 C         1.168668        -0.117843        -2.202460
 H         0.504752         0.000233         1.425574
 H         0.200013         1.513396         0.460874
 H        -0.894702         0.111203         0.210296
 H         3.617390        -0.280871         0.129401
 H         3.403799         0.409437        -2.624842
 H         3.611446        -1.609760        -3.815998
 H         3.515738        -2.533779        -2.230672
 H         0.352976        -0.749600        -3.961709
 H         0.021450        -1.927409        -2.572954
 H         0.873841         0.947323        -2.372067
