19
Iteration:   456
 C         0.369050         0.562346         0.400737
 C         1.218417        -0.167154        -0.568880
 O         2.043500        -1.178848        -0.105972
 C         2.639703        -0.109398        -0.842354
 C         2.391932        -0.234971        -2.428875
 C         2.976027        -1.425461        -3.147846
 O         1.899396        -2.218321        -3.494836
 C         0.761564        -1.949032        -2.529112
 C         0.912655        -0.493914        -2.226658
 H        -0.278580         1.235882         0.029118
 H        -0.365371        -0.341972         0.748642
 H         0.973448         0.925085         1.206523
 H         3.511132         0.290054        -0.481181
 H         2.631770         0.753329        -2.891473
 H         3.535854        -1.120627        -3.986185
 H         3.638464        -2.067891        -2.499333
 H        -0.074411        -2.156521        -3.217289
 H         0.871367        -2.640144        -1.671860
 H         0.183093         0.164681        -2.742160
