19
Iteration:  4632
 C         0.210989         0.429760         0.233713
 C         1.223672        -0.318555        -0.608770
 O         1.829677        -1.580141        -0.228888
 C         2.711193        -0.343414        -0.582456
 C         2.775071        -0.346122        -2.100756
 C         3.032031        -1.586811        -3.014728
 O         1.755365        -2.175473        -3.380821
 C         0.635358        -1.194972        -3.026153
 C         1.174214        -0.132569        -2.142001
 H         0.115840        -0.166442         1.212996
 H         0.526060         1.363676         0.402603
 H        -0.731755         0.390866        -0.345313
 H         3.362181         0.074837         0.188642
 H         3.166397         0.539254        -2.538220
 H         3.359754        -1.244219        -3.957376
 H         3.620938        -2.399203        -2.501516
 H         0.213642        -0.775769        -3.976247
 H        -0.114736        -1.783404        -2.583206
 H         0.912037         0.860483        -2.479768
