19
Iteration:  2291charge 0 multiplicity 1
 C         0.379902         0.526168         0.451844
 C         1.193523        -0.136129        -0.613050
 O         2.028922        -1.230879        -0.208694
 C         2.608595        -0.192631        -0.923658
 C         2.383286        -0.170857        -2.384333
 C         2.929407        -1.309721        -3.248315
 O         2.043050        -2.429052        -3.091439
 C         0.760864        -1.847671        -2.840063
 C         0.892380        -0.451126        -2.088290
 H        -0.147893         1.426869         0.044436
 H        -0.349962        -0.187500         0.927084
 H         1.066284         0.778310         1.288292
 H         3.600939         0.238991        -0.335457
 H         2.490553         0.850331        -2.821080
 H         2.844979        -1.154141        -4.287142
 H         3.951340        -1.655754        -3.070797
 H         0.293112        -1.663465        -3.770489
 H         0.149478        -2.506349        -2.162160
 H         0.125565         0.277871        -2.481511
