19
Iteration:  4659charge 0 multiplicity 1
 C         0.077791         0.379454         0.209885
 C         1.248132        -0.216369        -0.594952
 O         1.899517        -1.560418        -0.168596
 C         2.748302        -0.421113        -0.539247
 C         2.770628        -0.372192        -2.129072
 C         3.012652        -1.568517        -3.040332
 O         1.705428        -2.131856        -3.377314
 C         0.618292        -1.206039        -3.053718
 C         1.277650        -0.139339        -2.152117
 H         0.100659         0.003167         1.183822
 H         0.183996         1.547186         0.178056
 H        -0.790964         0.069828        -0.341084
 H         3.655887        -0.298671         0.094406
 H         3.207966         0.632708        -2.545009
 H         3.421605        -1.382433        -4.059818
 H         3.492648        -2.325645        -2.433936
 H         0.083607        -0.829144        -4.028840
 H        -0.140352        -1.829852        -2.406630
 H         1.007563         0.880338        -2.535160
