19
Iteration:  4064charge 0 multiplicity 1
 C         0.205950         0.592945         0.261215
 C         1.220159        -0.226980        -0.559825
 O         1.769258        -1.557029        -0.159577
 C         2.672188        -0.431048        -0.552730
 C         2.793180        -0.419191        -2.163237
 C         3.024950        -1.629929        -3.096511
 O         1.757848        -1.743066        -3.758191
 C         0.693687        -1.546253        -2.760983
 C         1.204192        -0.305425        -2.056151
 H         0.355067         0.563565         1.282952
 H         0.345983         1.639282        -0.026351
 H        -0.796918         0.127006         0.120114
 H         3.386145        -0.135760         0.243613
 H         3.283658         0.462578        -2.536624
 H         3.729453        -1.496877        -3.940672
 H         3.234945        -2.612358        -2.617633
 H        -0.279935        -1.499934        -3.314457
 H         0.544879        -2.361601        -2.045930
 H         0.929717         0.582189        -2.581397
