19
Iteration:  2563
 C         0.251524         0.268902         0.270112
 C         1.256539        -0.261233        -0.669835
 O         2.183132        -1.288448        -0.260464
 C         2.722540        -0.028977        -0.824668
 C         2.459869        -0.158101        -2.435153
 C         2.924239        -1.345277        -3.261295
 O         1.908594        -2.322760        -2.906356
 C         0.645866        -1.756184        -2.676529
 C         0.930459        -0.309718        -2.210225
 H         0.104832         1.280875         0.105091
 H        -0.839177        -0.156681         0.077652
 H         0.574172         0.193213         1.303469
 H         3.512621         0.549245        -0.349322
 H         2.746718         0.763062        -2.879140
 H         2.989656        -1.207996        -4.329274
 H         3.827736        -1.786372        -2.903860
 H         0.015040        -1.937787        -3.524314
 H         0.224164        -2.383061        -1.910521
 H         0.041756         0.420005        -2.447560
