19
Iteration:  1204
 C         0.320663         0.349293         0.422275
 C         1.183018        -0.291258        -0.598713
 O         2.302563        -1.202158        -0.221842
 C         2.613042        -0.058888        -0.944145
 C         2.449362        -0.099652        -2.359261
 C         2.976845        -1.470741        -3.107145
 O         1.829891        -2.412114        -2.979909
 C         0.622539        -1.688102        -2.946056
 C         0.921685        -0.358911        -2.214752
 H         0.288376         1.410223         0.387851
 H        -0.749140        -0.017322         0.274706
 H         0.633150        -0.067926         1.401024
 H         3.321789         0.656968        -0.426064
 H         2.870568         0.722728        -2.988888
 H         3.265261        -1.241651        -4.155099
 H         3.793374        -2.013231        -2.664182
 H         0.280369        -1.489275        -3.959871
 H        -0.224139        -2.339549        -2.460469
 H         0.309276         0.491888        -2.424836
