19
Iteration:  4299
 C         0.383067         0.588023         0.429941
 C         1.141691        -0.228698        -0.566240
 O         1.704529        -1.483140        -0.102720
 C         2.625900        -0.435917        -0.565070
 C         2.711833        -0.391287        -2.074247
 C         3.067961        -1.615337        -3.026208
 O         1.859861        -1.895669        -3.780440
 C         0.686300        -1.549644        -2.967597
 C         1.113062        -0.254561        -2.235932
 H         0.926046         0.606614         1.379935
 H         0.165182         1.671402         0.116356
 H        -0.477202         0.010690         0.694901
 H         3.319284        -0.079933         0.099826
 H         3.148762         0.597521        -2.352375
 H         3.902558        -1.628598        -3.740158
 H         3.164834        -2.548216        -2.357767
 H        -0.030262        -1.447680        -3.850269
 H         0.277117        -2.328238        -2.412942
 H         0.751660         0.729058        -2.624101
