19
Iteration:  2854charge 0 multiplicity 1
 C         0.160507         0.228181         0.402506
 C         1.231089        -0.262505        -0.664664
 O         2.263698        -1.234512        -0.280966
 C         2.646128         0.057695        -0.862416
 C         2.621417        -0.150811        -2.440063
 C         2.954886        -1.475479        -3.091433
 O         1.749401        -2.367239        -3.155875
 C         0.630425        -1.669932        -2.697779
 C         1.042340        -0.340616        -2.180596
 H        -0.519732         0.954817        -0.154828
 H        -0.200174        -0.556639         1.017737
 H         0.527142         0.947591         1.049748
 H         3.173794         0.661632        -0.249423
 H         2.882660         0.759765        -2.968130
 H         3.307342        -1.407027        -4.153702
 H         3.749956        -2.018405        -2.502730
 H        -0.210035        -1.698996        -3.549549
 H         0.231445        -2.189498        -1.878568
 H         0.362147         0.403770        -2.437041
