19
Iteration:   757
 C         0.381880         0.600826         0.479967
 C         1.172392        -0.168440        -0.601552
 O         1.988350        -1.249093        -0.199893
 C         2.651820        -0.200422        -0.889287
 C         2.398602        -0.223189        -2.384578
 C         2.947549        -1.272055        -3.293498
 O         2.011801        -2.351921        -3.212724
 C         0.787383        -1.914049        -2.682777
 C         0.869170        -0.502513        -2.177570
 H         0.211272         1.632441         0.118552
 H        -0.670000         0.173001         0.905684
 H         1.055655         0.824368         1.246604
 H         3.491985         0.412152        -0.402342
 H         2.631366         0.691154        -2.781681
 H         3.073691        -1.046033        -4.440150
 H         3.890088        -1.663416        -2.832045
 H        -0.039019        -1.986647        -3.362564
 H         0.619258        -2.599687        -1.898873
 H         0.175183         0.198916        -2.587256
