19
Iteration:  3403charge 0 multiplicity 1
 C         0.322646         0.315798         0.430716
 C         1.263156        -0.227093        -0.560885
 O         2.003180        -1.295016        -0.224776
 C         2.686648        -0.122693        -0.797433
 C         2.539768        -0.218266        -2.380318
 C         2.948327        -1.572206        -2.935732
 O         1.792531        -2.170734        -3.469962
 C         0.699296        -1.652100        -2.840978
 C         1.059424        -0.285140        -2.176055
 H         0.409873         1.458928         0.677516
 H        -0.699374         0.238902        -0.027906
 H         0.284916        -0.142543         1.403603
 H         3.464145         0.460502        -0.250827
 H         2.941171         0.610342        -2.930762
 H         3.761271        -1.575432        -3.637977
 H         3.314450        -2.102955        -2.090184
 H        -0.258672        -1.609593        -3.523921
 H         0.284892        -2.459432        -2.123803
 H         0.482401         0.585847        -2.490668
