19
Iteration:  1992charge 0 multiplicity 1
 C         0.309257         0.465830         0.417011
 C         1.225192        -0.213098        -0.470182
 O         2.163012        -1.242373        -0.173743
 C         2.639908        -0.037344        -0.918356
 C         2.417786        -0.160843        -2.455933
 C         2.944278        -1.393631        -3.238396
 O         1.968256        -2.423249        -3.106451
 C         0.659362        -1.809380        -2.894007
 C         0.926787        -0.414438        -2.037921
 H         0.162035         1.416947         0.209770
 H        -0.711638         0.095027         0.074039
 H         0.397161         0.340097         1.516437
 H         3.317366         0.435606        -0.366453
 H         2.713882         0.671357        -2.964413
 H         3.110345        -1.173949        -4.347439
 H         3.835334        -1.891649        -2.900845
 H         0.183616        -1.397119        -3.835912
 H         0.083432        -2.586966        -2.449474
 H         0.294146         0.359009        -2.493951
