19
Iteration:  1291charge 0 multiplicity 1
 C         0.316060         0.385293         0.360667
 C         1.203059        -0.175673        -0.661387
 O         2.025188        -1.351251        -0.390399
 C         2.688666        -0.131257        -0.814719
 C         2.487054        -0.138218        -2.428343
 C         2.910770        -1.360638        -3.159998
 O         1.875026        -2.329618        -3.116251
 C         0.741466        -1.780680        -2.551701
 C         0.987973        -0.314647        -2.213445
 H        -0.201797         1.173121        -0.006453
 H        -0.429269        -0.342900         0.753785
 H         0.905392         0.843854         1.086466
 H         3.503571         0.294481        -0.144899
 H         2.996438         0.725149        -2.945885
 H         3.238371        -1.022988        -4.130009
 H         3.806015        -1.775984        -2.680634
 H        -0.080673        -2.039663        -3.231943
 H         0.476204        -2.298422        -1.549125
 H         0.307127         0.392659        -2.650409
