19
Iteration:  1963
 C         0.295682         0.276107         0.305990
 C         1.182453        -0.280968        -0.653417
 O         2.330402        -1.144410        -0.169314
 C         2.668709        -0.030672        -0.829224
 C         2.437157        -0.185035        -2.399935
 C         2.913049        -1.389517        -3.138647
 O         1.853923        -2.392862        -3.004744
 C         0.576334        -1.721971        -2.897818
 C         0.985178        -0.403026        -2.147349
 H         0.361792         1.515304         0.175053
 H        -0.795375        -0.073818         0.133354
 H         0.455374        -0.019130         1.295612
 H         3.375267         0.656887        -0.249291
 H         2.614390         0.818242        -2.921190
 H         3.104246        -1.255698        -4.183624
 H         3.759821        -1.981682        -2.777660
 H         0.087522        -1.377681        -3.808983
 H        -0.115762        -2.412724        -2.280417
 H         0.458963         0.412975        -2.688101
