19
Iteration:  4734
 C         0.303357         0.376507         0.426898
 C         1.172650        -0.325525        -0.663877
 O         1.632633        -1.580756        -0.403389
 C         2.677166        -0.433016        -0.683488
 C         2.718721        -0.248144        -2.244100
 C         3.085088        -1.616783        -2.877381
 O         1.771135        -2.120878        -3.220436
 C         0.696693        -1.182646        -3.080722
 C         1.249496        -0.090939        -2.167791
 H         1.047257         0.641511         1.112257
 H        -0.262635         1.268626         0.029194
 H        -0.325169        -0.348558         0.831713
 H         3.308739        -0.424709         0.266454
 H         3.283886         0.755614        -2.554956
 H         3.764607        -1.561510        -3.815588
 H         3.673040        -2.333005        -2.237004
 H         0.476789        -0.768402        -4.081736
 H        -0.200012        -1.711217        -2.654188
 H         0.865341         0.816870        -2.661893
