19
Iteration:  4809
 C         0.145611         0.393218         0.229483
 C         1.260787        -0.230609        -0.660814
 O         1.761063        -1.562306        -0.194126
 C         2.756464        -0.597543        -0.524886
 C         2.735736        -0.369159        -2.199039
 C         2.962460        -1.445166        -3.110439
 O         1.744501        -2.164760        -3.219438
 C         0.716966        -1.176321        -3.046537
 C         1.244879        -0.115817        -2.164697
 H         0.228177         0.027329         1.326654
 H         0.353894         1.554013         0.174726
 H        -0.870679         0.245471        -0.257815
 H         3.616429        -0.348849         0.265177
 H         3.235764         0.616746        -2.442685
 H         3.462165        -1.014666        -3.947020
 H         3.711728        -2.246176        -2.863040
 H         0.324421        -0.954403        -4.086601
 H        -0.009039        -1.786604        -2.527868
 H         0.919626         0.894541        -2.522867
