19
Iteration:  2267
 C         0.269214         0.466165         0.384938
 C         1.228328        -0.283981        -0.626882
 O         2.169621        -1.270214        -0.158643
 C         2.632594        -0.038389        -0.849244
 C         2.534567        -0.172744        -2.400693
 C         2.939102        -1.337340        -3.261685
 O         1.915343        -2.369357        -3.106751
 C         0.600063        -1.862418        -2.764307
 C         0.967734        -0.399542        -2.173998
 H        -0.332066         1.107660        -0.167859
 H        -0.403967        -0.279378         0.995572
 H         0.794526         1.040776         1.111419
 H         3.396071         0.762723        -0.202899
 H         2.746365         0.779585        -2.892027
 H         3.024808        -1.165967        -4.297652
 H         3.866684        -1.844218        -2.979454
 H         0.014508        -1.794264        -3.662940
 H         0.135750        -2.466198        -2.072152
 H         0.293731         0.492746        -2.504047
