19
Iteration:  1910charge 0 multiplicity 1
 C         0.264889         0.020200         0.390694
 C         1.297185        -0.046847        -0.739734
 O         2.160112        -1.248580        -0.410275
 C         2.734825        -0.008603        -0.987568
 C         2.539658        -0.130700        -2.462232
 C         2.963172        -1.493897        -2.961421
 O         1.846940        -2.358908        -2.811800
 C         0.574611        -1.636813        -2.786181
 C         0.897840        -0.217397        -2.206962
 H        -0.552914         0.848637         0.206079
 H        -0.121532        -0.945555         0.389434
 H         0.721953         0.163991         1.323171
 H         3.487610         0.570462        -0.285225
 H         2.910324         0.790342        -3.127435
 H         3.323513        -1.392919        -4.080371
 H         3.699722        -2.135187        -2.373239
 H         0.044965        -1.511760        -3.797681
 H        -0.216184        -2.165332        -2.155116
 H         0.277205         0.540817        -2.726022
