19
Iteration:  3875
 C         0.154239         0.283522         0.371256
 C         1.283335        -0.182188        -0.595271
 O         2.013060        -1.385740        -0.203967
 C         2.770993        -0.198528        -0.644506
 C         2.745869        -0.333951        -2.211161
 C         2.867084        -1.707218        -2.826903
 O         1.724902        -2.001639        -3.701265
 C         0.603298        -1.446440        -2.890925
 C         1.162638        -0.270366        -2.187600
 H        -0.786869         0.463278        -0.117443
 H        -0.018645        -0.472997         1.150584
 H         0.362039         1.275979         0.860341
 H         3.672578         0.093694         0.018367
 H         3.148740         0.434048        -2.920463
 H         3.868977        -1.698680        -3.342326
 H         2.910746        -2.427700        -2.062710
 H        -0.058167        -0.933612        -3.658186
 H         0.129799        -2.147494        -2.146422
 H         0.859981         0.747819        -2.719209
