19
Iteration:  3795
 C         0.328663         0.580201         0.416215
 C         1.155050        -0.202913        -0.525150
 O         1.858200        -1.460950        -0.143199
 C         2.609930        -0.413124        -0.704182
 C         2.627885        -0.367146        -2.212826
 C         3.070510        -1.551672        -3.102536
 O         1.807573        -1.950644        -3.684853
 C         0.670390        -1.644010        -2.775892
 C         1.136310        -0.288831        -2.149651
 H         0.504463         1.727333         0.178261
 H        -0.776774         0.490636         0.295488
 H         0.542201         0.232913         1.372147
 H         3.375340         0.029922        -0.182533
 H         3.080171         0.522717        -2.590367
 H         3.667745        -1.129780        -3.870286
 H         3.603693        -2.404197        -2.603310
 H        -0.205983        -1.630036        -3.342533
 H         0.541307        -2.445915        -1.991528
 H         0.768443         0.710326        -2.606767
