19
Iteration:  2424
 C         0.233126         0.218968         0.399218
 C         1.195495        -0.216927        -0.653765
 O         2.326509        -1.156440        -0.161135
 C         2.668557         0.044315        -0.847383
 C         2.547492        -0.150127        -2.439245
 C         2.965610        -1.484496        -3.098802
 O         1.779154        -2.408268        -3.126293
 C         0.596782        -1.702469        -2.852309
 C         0.977758        -0.391982        -2.171438
 H        -0.597902         0.921500         0.095724
 H        -0.303207        -0.599113         0.727382
 H         0.765963         0.838681         1.213499
 H         3.248817         0.729074        -0.395491
 H         2.698728         0.784777        -3.046531
 H         3.204822        -1.281038        -4.181090
 H         3.840843        -1.986963        -2.633144
 H         0.000580        -1.348020        -3.682704
 H        -0.166648        -2.316657        -2.250245
 H         0.358364         0.351978        -2.505062
