19
Iteration:  4244
 C         0.158320         0.427901         0.333441
 C         1.174253        -0.218588        -0.587212
 O         1.853808        -1.515975        -0.432508
 C         2.729667        -0.424582        -0.608938
 C         2.760490        -0.342665        -2.158486
 C         3.008538        -1.619377        -2.863528
 O         1.757147        -2.036167        -3.572803
 C         0.626999        -1.424847        -2.797617
 C         1.258041        -0.097989        -2.166958
 H         0.210444         0.166401         1.434181
 H         0.356497         1.551417         0.297011
 H        -0.865402         0.388495         0.062667
 H         3.463962        -0.249732         0.054273
 H         3.245906         0.477321        -2.728884
 H         3.656630        -1.440271        -3.704457
 H         3.372823        -2.469528        -2.308449
 H        -0.064396        -1.176907        -3.652603
 H         0.301560        -2.062198        -2.029291
 H         0.891757         0.917433        -2.391689
