19
Iteration:  1109
 C         0.188774         0.292858         0.329889
 C         1.273477        -0.088118        -0.606651
 O         2.244664        -1.111743        -0.201536
 C         2.761316         0.069506        -0.804487
 C         2.508098        -0.308638        -2.385744
 C         2.939252        -1.640229        -2.974997
 O         1.729230        -2.151493        -3.579350
 C         0.615447        -1.863826        -2.548960
 C         1.036722        -0.414962        -2.131919
 H        -0.753566         0.728340        -0.238566
 H        -0.214994        -0.598361         0.675220
 H         0.420352         1.152077         1.115307
 H         3.463134         0.653242        -0.331228
 H         2.669376         0.643520        -2.966599
 H         3.742629        -1.517295        -3.793255
 H         3.480970        -2.275993        -2.229631
 H        -0.295343        -2.123342        -3.141722
 H         0.608139        -2.552803        -1.739179
 H         0.373691         0.425032        -2.620045
