19
Iteration:  2953
 C         0.290658         0.499372         0.326696
 C         1.285686        -0.210793        -0.598639
 O         2.056944        -1.196063        -0.080886
 C         2.697936        -0.021270        -0.823045
 C         2.430190        -0.227919        -2.437051
 C         3.005683        -1.451272        -3.073322
 O         1.805318        -2.108452        -3.604063
 C         0.782564        -1.965634        -2.602313
 C         0.908059        -0.557989        -2.015545
 H         0.576747         1.632165         0.356703
 H        -0.742389         0.275027        -0.009741
 H         0.345012         0.218355         1.307697
 H         3.568964         0.486688        -0.350946
 H         2.485989         0.670562        -3.064551
 H         3.704166        -1.285977        -3.972429
 H         3.516629        -2.202459        -2.308681
 H        -0.277057        -2.159165        -3.088023
 H         0.911374        -2.733438        -1.930840
 H         0.251170         0.074554        -2.535964
