19
Iteration:    12charge 0 multiplicity 1
 C         0.216455         0.393571         0.467306
 C         1.187546        -0.122898        -0.632125
 O         2.153059        -1.107351        -0.174820
 C         2.670867         0.079654        -0.994310
 C         2.464089        -0.227431        -2.488598
 C         3.023508        -1.579296        -2.942713
 O         1.809683        -2.219677        -3.540233
 C         0.768320        -1.922204        -2.550750
 C         0.913902        -0.435837        -2.159187
 H         0.911173         0.669035         1.294550
 H        -0.550136         1.160661         0.286201
 H        -0.151626        -0.559366         0.798794
 H         3.672100         0.252667        -0.566235
 H         2.775402         0.631142        -3.071793
 H         3.805822        -1.627513        -3.676031
 H         3.270412        -2.171542        -2.043939
 H        -0.185979        -2.149986        -3.016118
 H         0.911035        -2.563334        -1.654195
 H         0.147400         0.249298        -2.550729
