19
Iteration:  1780
 C         0.308282         0.401860         0.407209
 C         1.217394        -0.200869        -0.666823
 O         2.051062        -1.279488        -0.278308
 C         2.703671        -0.106004        -0.904303
 C         2.425516        -0.144350        -2.397306
 C         2.965608        -1.421659        -3.163387
 O         1.906145        -2.276108        -3.225858
 C         0.700682        -1.851731        -2.620597
 C         0.936874        -0.361604        -2.139239
 H         0.215635         1.539232         0.166961
 H        -0.694616        -0.044978         0.396608
 H         0.867401         0.293777         1.392024
 H         3.541489         0.333940        -0.208671
 H         2.586517         0.906389        -2.910184
 H         3.489055        -1.349512        -4.125868
 H         3.789303        -1.823695        -2.468283
 H        -0.168212        -1.925245        -3.259315
 H         0.576464        -2.375122        -1.708052
 H         0.331484         0.414324        -2.628834
