19
Iteration:  4667
 C         0.100673         0.356016         0.188373
 C         1.287543        -0.244317        -0.555845
 O         1.855899        -1.528876        -0.162611
 C         2.730551        -0.468786        -0.608001
 C         2.759732        -0.336820        -2.148054
 C         3.011765        -1.608624        -3.038541
 O         1.721342        -2.151944        -3.377521
 C         0.649741        -1.186632        -2.980020
 C         1.208435        -0.085426        -2.203714
 H         0.184225         0.026147         1.247780
 H         0.035606         1.412943         0.203449
 H        -0.825731        -0.019945        -0.190677
 H         3.494178        -0.020107         0.187534
 H         3.380466         0.552285        -2.595275
 H         3.706695        -1.324944        -3.856933
 H         3.586160        -2.491883        -2.690582
 H         0.187615        -0.713114        -3.904140
 H        -0.135404        -1.760385        -2.423206
 H         1.108259         0.987821        -2.412741
