19
Iteration:  3551charge 0 multiplicity 1
 C         0.322597         0.465786         0.453775
 C         1.209187        -0.184740        -0.601013
 O         1.861221        -1.429343        -0.346521
 C         2.643173        -0.196676        -0.776571
 C         2.658909        -0.219269        -2.291602
 C         3.015138        -1.506694        -3.006062
 O         1.837358        -2.143421        -3.442992
 C         0.661182        -1.687278        -2.797414
 C         1.052260        -0.344954        -2.135860
 H        -0.553493         0.013795         0.632621
 H         0.926255         0.636385         1.281608
 H         0.150698         1.545995         0.235144
 H         3.502092        -0.010504        -0.135989
 H         3.203746         0.659842        -2.715659
 H         3.612209        -1.292123        -3.891093
 H         3.532577        -2.151879        -2.386835
 H        -0.110465        -1.398377        -3.422703
 H         0.370612        -2.358778        -1.971669
 H         0.378076         0.471746        -2.378347
