19
Iteration:  1070charge 0 multiplicity 1
 C         0.365561         0.578242         0.328837
 C         1.204166        -0.260791        -0.577880
 O         2.209972        -1.101066        -0.003291
 C         2.628894         0.040531        -0.774185
 C         2.397742        -0.306077        -2.358202
 C         2.976294        -1.551332        -3.087626
 O         1.770759        -2.095014        -3.701567
 C         0.728252        -1.986112        -2.691604
 C         0.945262        -0.602410        -2.053815
 H        -0.083277         1.259712        -0.343917
 H        -0.478623        -0.074314         0.870585
 H         0.861819         1.034245         1.127813
 H         3.337110         0.808534        -0.304797
 H         2.623697         0.487948        -3.055327
 H         3.661174        -1.422986        -3.887882
 H         3.383738        -2.314142        -2.384749
 H        -0.350031        -2.171700        -3.027399
 H         1.032727        -2.709687        -1.876854
 H         0.314042         0.174005        -2.502413
