19
Iteration:   984charge 0 multiplicity 1
 C         0.247062         0.408670         0.323015
 C         1.255537        -0.153351        -0.615894
 O         2.133663        -1.252266        -0.286780
 C         2.706367         0.020464        -0.894875
 C         2.472018        -0.186205        -2.392045
 C         2.952938        -1.490503        -3.186161
 O         1.825645        -2.239581        -3.322902
 C         0.705084        -1.895490        -2.473125
 C         0.961970        -0.393540        -2.093432
 H         0.014068         1.422285         0.137103
 H        -0.752505        -0.255125         0.255607
 H         0.561531         0.252299         1.331631
 H         3.638355         0.499392        -0.393598
 H         2.744686         0.723923        -2.915794
 H         3.308331        -1.248393        -4.182161
 H         3.651209        -2.084548        -2.569091
 H        -0.147803        -1.910006        -3.001065
 H         0.710309        -2.573675        -1.606518
 H         0.261203         0.197737        -2.545223
