19
Iteration:  1635
 C         0.285422         0.259611         0.481203
 C         1.273511        -0.143426        -0.639509
 O         2.211281        -1.071179        -0.162178
 C         2.672215         0.110881        -0.842226
 C         2.518766        -0.265118        -2.452638
 C         2.888100        -1.671627        -2.884180
 O         1.775364        -2.173184        -3.575297
 C         0.672497        -1.801330        -2.747358
 C         0.987877        -0.455121        -2.133001
 H        -0.614305         0.900751        -0.040206
 H        -0.122471        -0.650405         0.835949
 H         0.702640         0.747027         1.301094
 H         3.144474         0.832915        -0.256184
 H         2.651950         0.643435        -3.211562
 H         3.769425        -1.794741        -3.555743
 H         3.189098        -2.380215        -2.067839
 H        -0.185496        -1.815477        -3.377532
 H         0.556279        -2.539433        -1.967537
 H         0.494714         0.442560        -2.489094
