19
Iteration:  4761
 C         0.290286         0.433627         0.370053
 C         1.158768        -0.239151        -0.628924
 O         1.762451        -1.585283        -0.307523
 C         2.642398        -0.484327        -0.594469
 C         2.728198        -0.325394        -2.083490
 C         2.982919        -1.541807        -3.038665
 O         1.772435        -2.177913        -3.221299
 C         0.743615        -1.231385        -3.190311
 C         1.196357        -0.054825        -2.182622
 H         1.022756         0.603998         1.258509
 H        -0.133476         1.301258        -0.027326
 H        -0.534376        -0.321995         0.671564
 H         3.351465        -0.463399         0.242251
 H         3.334399         0.491399        -2.197161
 H         3.464069        -1.216608        -3.946753
 H         3.693587        -2.311317        -2.753633
 H         0.564312        -0.781265        -4.290021
 H        -0.184045        -1.771666        -2.847081
 H         0.885990         0.861086        -2.693369
