19
Iteration:  3000
 C         0.195977         0.440847         0.264120
 C         1.232489        -0.277565        -0.571421
 O         2.185736        -1.116642        -0.076355
 C         2.587708         0.070520        -0.773169
 C         2.573962        -0.246871        -2.316387
 C         2.974087        -1.645186        -3.179467
 O         1.715272        -2.037475        -3.665790
 C         0.741019        -1.925415        -2.570131
 C         1.057585        -0.552214        -2.034673
 H         0.221846         1.477122         0.014073
 H        -0.791265        -0.092287         0.160886
 H         0.517252         0.370557         1.398197
 H         3.260870         0.839795        -0.191593
 H         2.839214         0.631709        -2.924277
 H         3.660138        -1.454365        -3.995624
 H         3.407647        -2.448957        -2.464877
 H        -0.282019        -1.955737        -2.926483
 H         0.861492        -2.667798        -1.803787
 H         0.482608         0.276676        -2.456958
