19
Iteration:  4778charge 0 multiplicity 1
 C         0.229653         0.405788         0.363977
 C         1.194365        -0.287212        -0.631345
 O         1.714179        -1.529525        -0.261696
 C         2.640886        -0.476146        -0.531164
 C         2.841841        -0.369940        -2.132426
 C         3.002838        -1.473939        -3.148508
 O         1.727758        -2.259687        -3.231246
 C         0.731272        -1.155969        -3.137927
 C         1.239548        -0.176496        -2.149620
 H         0.641683         0.541631         1.351670
 H         0.049910         1.489537        -0.053452
 H        -0.724732        -0.065660         0.457792
 H         3.349665        -0.053244         0.199432
 H         3.399878         0.625789        -2.488004
 H         3.311511        -0.832137        -4.105439
 H         3.788276        -2.215532        -2.921577
 H         0.658299        -0.761488        -4.099525
 H        -0.188504        -1.710759        -2.867787
 H         1.011297         0.866561        -2.404198
