19
Iteration:  3237
 C         0.333062         0.401826         0.485419
 C         1.163948        -0.206994        -0.638280
 O         2.023878        -1.404841        -0.328311
 C         2.592900        -0.215308        -0.838803
 C         2.553233        -0.094649        -2.382723
 C         2.978433        -1.393701        -3.096543
 O         1.928609        -2.402810        -2.992992
 C         0.672211        -1.668389        -2.899795
 C         0.964284        -0.175173        -2.259103
 H         0.514811        -0.402051         1.392288
 H         0.883561         1.291686         0.736454
 H        -0.694188         0.439907         0.314071
 H         3.382611         0.282414        -0.199918
 H         2.982238         0.785735        -2.872364
 H         2.994547        -1.263428        -4.201272
 H         3.875055        -1.858900        -2.819172
 H         0.147442        -1.556489        -3.892411
 H         0.060334        -2.405446        -2.277133
 H         0.462511         0.700873        -2.704413
