19
Iteration:  3759charge 0 multiplicity 1
 C         0.288248         0.585914         0.235776
 C         1.265974        -0.225772        -0.546919
 O         1.820541        -1.479595        -0.154498
 C         2.705996        -0.389308        -0.626052
 C         2.622856        -0.279836        -2.230533
 C         3.008620        -1.521846        -3.104587
 O         1.751624        -1.931375        -3.747589
 C         0.669144        -1.716568        -2.655296
 C         1.160447        -0.299280        -2.028801
 H         0.790422         1.403022         0.754075
 H        -0.504935         0.827789        -0.477886
 H        -0.162279         0.029810         1.199912
 H         3.586648        -0.145280         0.133936
 H         2.959978         0.724092        -2.629524
 H         3.663285        -1.204469        -3.962135
 H         3.550843        -2.465663        -2.622141
 H        -0.212397        -1.607879        -3.284901
 H         0.673233        -2.486312        -1.961148
 H         0.781394         0.532732        -2.479548
