19
Iteration:  3965
 C         0.332420         0.380199         0.432794
 C         1.142101        -0.245848        -0.634645
 O         1.810275        -1.401302        -0.282433
 C         2.686110        -0.389471        -0.689586
 C         2.756733        -0.318902        -2.232502
 C         2.961309        -1.633008        -2.900253
 O         1.837791        -1.966107        -3.609983
 C         0.636158        -1.482773        -2.855039
 C         1.119539        -0.175076        -2.145037
 H        -0.082567        -0.314899         1.023483
 H         0.988985         0.998954         1.065515
 H        -0.483321         1.059459         0.006371
 H         3.404654        -0.169710         0.050927
 H         3.220961         0.538976        -2.668316
 H         3.809368        -1.646078        -3.593722
 H         3.139384        -2.372647        -2.178555
 H        -0.096912        -1.385227        -3.676157
 H         0.414771        -2.280417        -2.127491
 H         0.641760         0.704653        -2.576330
