19
Iteration:  2604
 C         0.359087         0.510243         0.534789
 C         1.145599        -0.143870        -0.627221
 O         2.011827        -1.271356        -0.311236
 C         2.600292        -0.096284        -0.863074
 C         2.468461        -0.168931        -2.370391
 C         3.001464        -1.394701        -3.316430
 O         2.045601        -2.344681        -3.103566
 C         0.745518        -1.851545        -2.735363
 C         0.813157        -0.452805        -2.173223
 H        -0.029304         1.466326         0.190240
 H        -0.478187        -0.145703         0.861416
 H         1.020307         0.472429         1.329180
 H         3.521321         0.235232        -0.154481
 H         2.703733         0.807177        -2.741743
 H         3.188196        -1.100628        -4.401621
 H         3.948778        -1.739687        -2.886703
 H        -0.069137        -1.861228        -3.567437
 H         0.367277        -2.552196        -1.832751
 H         0.253631         0.316485        -2.776198
