19
Iteration:   432
 C         0.343504         0.626683         0.428909
 C         1.135397        -0.172705        -0.588202
 O         2.125095        -1.145367        -0.130156
 C         2.559455        -0.001264        -0.807158
 C         2.477494        -0.284594        -2.329494
 C         2.983540        -1.468983        -3.145481
 O         1.795457        -2.191297        -3.654890
 C         0.832533        -2.048584        -2.620876
 C         0.946376        -0.578445        -2.080013
 H         0.191665         1.666718         0.206896
 H        -0.673547         0.212371         0.651968
 H         0.961813         0.531204         1.258379
 H         3.223595         0.725909        -0.405938
 H         2.727203         0.640155        -2.810852
 H         3.628601        -1.268222        -3.939717
 H         3.448477        -2.159963        -2.435799
 H        -0.033568        -2.315393        -3.135588
 H         1.087353        -2.760422        -1.795874
 H         0.313189         0.123518        -2.565433
