19
Iteration:  4770
 C         0.251221         0.424895         0.351896
 C         1.158777        -0.265091        -0.626335
 O         1.739797        -1.556708        -0.296533
 C         2.673798        -0.472578        -0.503245
 C         2.734535        -0.338261        -2.079404
 C         3.002207        -1.544418        -3.101622
 O         1.755054        -2.187596        -3.238029
 C         0.754578        -1.229767        -3.154109
 C         1.261314        -0.126411        -2.205063
 H         0.792130         0.546442         1.221723
 H        -0.073261         1.424183         0.075159
 H        -0.612102        -0.114317         0.654229
 H         3.398539        -0.243785         0.157271
 H         3.291140         0.522942        -2.493299
 H         3.059629        -1.085929        -4.104664
 H         3.797915        -2.212186        -2.883684
 H         0.635149        -0.640405        -4.114926
 H        -0.269786        -1.687507        -2.926114
 H         0.962022         0.873531        -2.441587
