19
Iteration:   513
 C         0.221961         0.231665         0.269635
 C         1.254936        -0.198211        -0.629472
 O         2.185037        -1.188894        -0.267288
 C         2.710981        -0.032427        -0.912045
 C         2.510638        -0.164784        -2.428262
 C         2.969318        -1.483500        -3.070730
 O         1.833506        -2.361249        -3.149180
 C         0.602464        -1.701191        -2.607028
 C         0.979410        -0.317302        -2.154796
 H        -0.585349         0.667455        -0.220147
 H         0.024673        -0.587125         1.101060
 H         0.537259         0.947034         1.082483
 H         3.547651         0.630090        -0.493567
 H         2.714412         0.718981        -3.137188
 H         3.221841        -1.065496        -4.050168
 H         3.862506        -2.106820        -2.769418
 H        -0.189753        -1.796718        -3.459052
 H         0.174841        -2.353182        -1.822770
 H         0.351976         0.606608        -2.401899
