19
Iteration:  2469
 C         0.346067         0.140031         0.470396
 C         1.186019        -0.195341        -0.709091
 O         2.331192        -1.195819        -0.420063
 C         2.608237         0.128399        -0.878790
 C         2.474752        -0.112464        -2.416382
 C         2.963295        -1.511763        -2.896881
 O         1.781776        -2.432033        -3.007329
 C         0.588371        -1.635175        -2.942998
 C         0.954782        -0.365699        -2.180656
 H        -0.644995         0.726147         0.269998
 H        -0.015464        -0.693083         0.889695
 H         0.943147         0.809985         1.198695
 H         3.212361         0.762655        -0.278950
 H         2.798036         0.731763        -3.093565
 H         3.641564        -1.593038        -3.774470
 H         3.459804        -1.986181        -2.001386
 H         0.235789        -1.364635        -3.996594
 H        -0.286499        -2.263703        -2.482197
 H         0.344921         0.409109        -2.469889
