19
Iteration:  4607charge 0 multiplicity 1
 C         0.267266         0.401306         0.424523
 C         1.153298        -0.248984        -0.632656
 O         1.734011        -1.510242        -0.285320
 C         2.671191        -0.522418        -0.684520
 C         2.818608        -0.268181        -2.196707
 C         3.028784        -1.542396        -2.968511
 O         1.796956        -2.159940        -3.265206
 C         0.685825        -1.289912        -3.080283
 C         1.171024        -0.099294        -2.228747
 H         0.383943        -0.197411         1.307788
 H         0.625515         1.497006         0.599269
 H        -0.829570         0.363002         0.101450
 H         3.348546        -0.205833         0.057526
 H         3.352518         0.637515        -2.443352
 H         3.489428        -1.382970        -3.953890
 H         3.563288        -2.311876        -2.338400
 H         0.348285        -0.949962        -4.001630
 H        -0.129378        -1.868473        -2.697948
 H         0.737328         0.842842        -2.649202
