19
Iteration:   725charge 0 multiplicity 1
 C         0.450683         0.623024         0.385089
 C         1.192834        -0.232836        -0.600693
 O         1.951481        -1.304964        -0.158800
 C         2.641111        -0.119713        -0.817751
 C         2.384022        -0.217293        -2.354393
 C         2.918602        -1.291445        -3.295635
 O         2.026516        -2.351762        -3.276232
 C         0.784322        -1.941942        -2.700011
 C         0.844792        -0.484534        -2.145089
 H        -0.072516         1.470328        -0.222103
 H        -0.255823         0.186437         1.293306
 H         1.234037         1.137173         0.892289
 H         3.388673         0.499472        -0.172689
 H         2.594926         0.714019        -2.787529
 H         3.082677        -0.899074        -4.382955
 H         3.903432        -1.567185        -2.863689
 H        -0.037126        -1.954185        -3.414489
 H         0.634457        -2.591253        -1.859304
 H         0.228217         0.344866        -2.409093
