19
Iteration:  4947charge 0 multiplicity 1
 C         0.149327         0.442695         0.210886
 C         1.234448        -0.339304        -0.582564
 O         1.810563        -1.522520        -0.130626
 C         2.693000        -0.474067        -0.581540
 C         2.804807        -0.341976        -2.189878
 C         3.018033        -1.584478        -3.005886
 O         1.702161        -2.121527        -3.390852
 C         0.669244        -1.156328        -3.137628
 C         1.256196        -0.178506        -2.082923
 H         0.544860         0.936527         1.242511
 H        -0.495816         1.084266        -0.237393
 H        -0.485389        -0.441647         0.571378
 H         3.620604        -0.225784         0.194305
 H         3.474501         0.449716        -2.461773
 H         3.576500        -1.357054        -3.917550
 H         3.572319        -2.385482        -2.622219
 H         0.518353        -0.510217        -3.908613
 H        -0.345055        -1.620972        -2.897793
 H         0.852307         0.819466        -2.410941
