19
Iteration:  3656
 C         0.249371         0.222741         0.327642
 C         1.237639        -0.269119        -0.596832
 O         2.081424        -1.339378        -0.213149
 C         2.773696        -0.072737        -0.681432
 C         2.703413        -0.244004        -2.331041
 C         2.892911        -1.660112        -2.813914
 O         1.722536        -2.056617        -3.543518
 C         0.580270        -1.539724        -2.958683
 C         1.076421        -0.273940        -2.104422
 H         0.303594        -0.134458         1.396203
 H         0.692841         1.203625         0.636170
 H        -0.761715         0.371727        -0.063904
 H         3.472981         0.310090        -0.074480
 H         3.023451         0.515817        -3.033096
 H         3.718097        -1.918879        -3.508969
 H         2.937774        -2.379560        -1.917267
 H        -0.087456        -1.137890        -3.776761
 H         0.021635        -2.256082        -2.423222
 H         0.598988         0.678971        -2.462075
