19
Iteration:   105charge 0 multiplicity 1
 C         0.201891         0.402903         0.353635
 C         1.248600        -0.257163        -0.584369
 O         2.274881        -1.113734        -0.163290
 C         2.717106         0.032484        -0.857162
 C         2.511351        -0.220457        -2.401628
 C         3.014274        -1.436698        -3.106506
 O         1.796593        -2.329679        -3.297694
 C         0.530312        -1.828105        -2.765926
 C         1.007691        -0.522307        -2.074289
 H         0.166406         1.485930         0.323182
 H        -0.866929         0.203298        -0.151067
 H         0.253398        -0.034651         1.360925
 H         3.376671         0.709293        -0.350263
 H         2.687902         0.713692        -2.973653
 H         3.395590        -1.291138        -4.155469
 H         3.650657        -2.067803        -2.376655
 H        -0.056370        -1.514076        -3.665054
 H         0.021035        -2.627354        -2.171239
 H         0.411732         0.338855        -2.454143
