19
Iteration:  3916charge 0 multiplicity 1
 C         0.106575         0.263044         0.243984
 C         1.244981        -0.260474        -0.579461
 O         2.045740        -1.381936        -0.169777
 C         2.790293        -0.176472        -0.634165
 C         2.730322        -0.337282        -2.184323
 C         2.961447        -1.736066        -2.913663
 O         1.614335        -2.006082        -3.619224
 C         0.606272        -1.349989        -2.903905
 C         1.254868        -0.234441        -2.133824
 H        -0.926380        -0.346493         0.025028
 H         0.315878         0.063628         1.324294
 H         0.059254         1.336155         0.198766
 H         3.529957         0.227590         0.068596
 H         3.113329         0.576234        -2.692005
 H         3.668356        -1.884989        -3.750516
 H         3.173315        -2.601159        -2.094148
 H        -0.082149        -0.981027        -3.642837
 H         0.247418        -2.117248        -2.211121
 H         0.947902         0.791899        -2.575634
