19
Iteration:  3482charge 0 multiplicity 1
 C         0.219575         0.505647         0.281596
 C         1.268232        -0.153457        -0.588938
 O         2.077184        -1.337170        -0.132807
 C         2.707223        -0.190696        -0.717855
 C         2.630150        -0.354619        -2.201157
 C         2.955715        -1.595023        -2.961779
 O         1.746753        -1.928086        -3.737090
 C         0.651813        -1.752219        -2.708098
 C         1.008969        -0.446847        -2.098790
 H        -0.511105         0.752224        -0.405743
 H        -0.089278        -0.124965         1.173434
 H         0.502852         1.314610         1.028706
 H         3.563546         0.275245        -0.207341
 H         2.926276         0.504701        -2.828370
 H         3.649516        -1.257748        -3.735304
 H         3.348662        -2.437250        -2.441703
 H        -0.297917        -1.816987        -3.410085
 H         0.855601        -2.587459        -1.961328
 H         0.513421         0.346948        -2.592533
