19
Iteration:  4911charge 0 multiplicity 1
 C         0.245338         0.452225         0.392661
 C         1.111002        -0.261939        -0.580676
 O         1.833504        -1.607508        -0.260281
 C         2.624953        -0.419006        -0.561897
 C         2.821013        -0.347217        -2.165494
 C         3.020066        -1.619768        -2.928916
 O         1.728570        -2.136331        -3.425399
 C         0.707910        -1.200030        -3.139788
 C         1.200406        -0.119331        -2.219836
 H         0.842976         0.565538         1.289869
 H        -0.126614         1.540035        -0.054224
 H        -0.562670        -0.191239         0.680184
 H         3.330579        -0.052377         0.146613
 H         3.532865         0.552000        -2.424023
 H         3.509209        -1.335572        -3.802644
 H         3.532803        -2.326592        -2.306963
 H         0.349201        -0.861283        -4.125082
 H        -0.109630        -1.823766        -2.735463
 H         0.875607         0.873127        -2.483085
