19
Iteration:  3063charge 0 multiplicity 1
 C         0.334388         0.337444         0.399426
 C         1.138399        -0.265695        -0.654071
 O         2.148014        -1.256053        -0.340090
 C         2.625486         0.076820        -0.856161
 C         2.516810        -0.196716        -2.392879
 C         3.017986        -1.555827        -2.904303
 O         1.835826        -2.185312        -3.381465
 C         0.593400        -1.742904        -2.669591
 C         0.993656        -0.405784        -2.168298
 H        -0.700867         0.720378         0.071765
 H         0.216675        -0.397093         1.206164
 H         0.908940         1.062216         0.899662
 H         3.451227         0.543184        -0.118934
 H         2.796881         0.677961        -2.984598
 H         3.734820        -1.524559        -3.760171
 H         3.488252        -2.167603        -2.085289
 H        -0.247756        -1.861613        -3.514314
 H         0.453130        -2.489151        -1.851244
 H         0.462109         0.406066        -2.608730
