19
Iteration:  3917
 C         0.103937         0.262094         0.248241
 C         1.246449        -0.257804        -0.583348
 O         2.047783        -1.378695        -0.179814
 C         2.786917        -0.183021        -0.627887
 C         2.729215        -0.330103        -2.179512
 C         2.959225        -1.737122        -2.916571
 O         1.611245        -2.006046        -3.617102
 C         0.605349        -1.357146        -2.908563
 C         1.258072        -0.242861        -2.130415
 H        -0.920882        -0.335083         0.050244
 H         0.316500         0.092171         1.331510
 H         0.037051         1.367073         0.173112
 H         3.563068         0.230042         0.096796
 H         3.133986         0.586762        -2.683100
 H         3.686041        -1.901046        -3.765236
 H         3.168760        -2.583163        -2.091337
 H        -0.077562        -0.986555        -3.666990
 H         0.268722        -2.123553        -2.203968
 H         0.954476         0.836132        -2.551948
