19
Iteration:  1897
 C         0.338188         0.009548         0.367698
 C         1.222367        -0.197033        -0.715790
 O         2.158493        -1.207831        -0.407012
 C         2.702596         0.025590        -0.903394
 C         2.519961        -0.090272        -2.484636
 C         2.954214        -1.504060        -2.957233
 O         1.764925        -2.364274        -2.808610
 C         0.620034        -1.579944        -2.752884
 C         0.986989        -0.238628        -2.303754
 H        -0.566654         0.722994        -0.010740
 H        -0.193047        -0.932133         0.692984
 H         0.762985         0.439733         1.219798
 H         3.579150         0.383003        -0.468335
 H         2.868556         0.770045        -3.084697
 H         3.162889        -1.508160        -4.079088
 H         3.893611        -1.781555        -2.469989
 H         0.221350        -1.519637        -3.808328
 H        -0.063223        -2.239596        -2.080762
 H         0.376620         0.590946        -2.680321
