19
Iteration:  3432
 C         0.186119         0.359739         0.361301
 C         1.223638        -0.155726        -0.613590
 O         2.134870        -1.236971        -0.145529
 C         2.712121        -0.097850        -0.674962
 C         2.613047        -0.372717        -2.216421
 C         2.965272        -1.668106        -3.060402
 O         1.713925        -2.014997        -3.616822
 C         0.635828        -1.727936        -2.781650
 C         1.099621        -0.324753        -2.146053
 H        -0.061856         1.439990         0.096304
 H        -0.727920        -0.195305         0.366481
 H         0.508285         0.246724         1.426010
 H         3.400239         0.534314        -0.214506
 H         3.044891         0.499013        -2.745274
 H         3.692979        -1.509616        -3.890522
 H         3.408366        -2.531034        -2.400911
 H        -0.186630        -1.736700        -3.381376
 H         0.484866        -2.515987        -2.025525
 H         0.575637         0.528584        -2.688465
