19
Iteration:  1830
 C         0.309731         0.334131         0.434531
 C         1.265996        -0.251122        -0.591403
 O         2.234758        -1.170446        -0.045371
 C         2.648656         0.003729        -0.903803
 C         2.473527        -0.187456        -2.461085
 C         2.976253        -1.453147        -3.178326
 O         1.831622        -2.393151        -3.110875
 C         0.608809        -1.712093        -2.940672
 C         0.927366        -0.423622        -2.145056
 H        -0.315950         1.114014        -0.071504
 H        -0.410569        -0.510382         0.612862
 H         0.758223         0.750362         1.328007
 H         3.325861         0.531600        -0.423448
 H         2.757860         0.672354        -2.959995
 H         3.261814        -1.136229        -4.256108
 H         3.772708        -1.973285        -2.689272
 H         0.273242        -1.258008        -3.929384
 H        -0.234158        -2.353658        -2.492947
 H         0.180805         0.321571        -2.403332
