19
Iteration:  2029charge 0 multiplicity 1
 C         0.451623         0.438459         0.402559
 C         1.165898        -0.218338        -0.684928
 O         2.013006        -1.313553        -0.239453
 C         2.538108        -0.172715        -0.846637
 C         2.512110        -0.116100        -2.389020
 C         2.919720        -1.309119        -3.234080
 O         1.984756        -2.347757        -3.058674
 C         0.692067        -1.873801        -2.667022
 C         0.929023        -0.344838        -2.261955
 H         0.124241         1.512425        -0.107138
 H        -0.374840        -0.278606         0.697368
 H         1.026565         0.661427         1.277575
 H         3.288774         0.433045        -0.142697
 H         2.776623         0.907905        -2.857180
 H         2.966588        -0.907583        -4.242500
 H         3.940204        -1.668549        -2.983557
 H         0.055657        -2.105826        -3.495677
 H         0.303266        -2.498319        -1.745948
 H         0.373288         0.543734        -2.681236
