19
Iteration:  3730charge 0 multiplicity 1
 C         0.243740         0.517232         0.374922
 C         1.208741        -0.182551        -0.581008
 O         1.953727        -1.420148        -0.088962
 C         2.709442        -0.342596        -0.644297
 C         2.633206        -0.349663        -2.217614
 C         2.987276        -1.647989        -3.066307
 O         1.760910        -1.914192        -3.729860
 C         0.668760        -1.683073        -2.784831
 C         1.111539        -0.247494        -2.174592
 H         0.807531         1.131719         1.190592
 H        -0.411288         1.262150        -0.097998
 H        -0.380724        -0.158953         0.856886
 H         3.512695        -0.057675        -0.018015
 H         3.156881         0.529916        -2.545621
 H         3.633894        -1.327878        -3.846987
 H         3.408328        -2.476988        -2.574762
 H        -0.212684        -1.678543        -3.385111
 H         0.656457        -2.408377        -1.847636
 H         0.583291         0.641868        -2.746134
