19
Iteration:  2982
 C         0.120330         0.527473         0.298850
 C         1.203432        -0.197627        -0.587275
 O         2.326052        -1.208086        -0.046379
 C         2.680202        -0.031059        -0.749616
 C         2.509224        -0.305175        -2.353177
 C         2.953952        -1.524999        -3.041174
 O         1.696467        -2.045079        -3.696767
 C         0.791088        -1.964922        -2.618890
 C         0.971568        -0.509292        -2.091125
 H         0.203282         1.621865         0.158757
 H        -0.876292         0.368850        -0.046567
 H         0.219880         0.403952         1.418936
 H         3.361499         0.604152        -0.382712
 H         2.687959         0.633917        -2.929244
 H         3.601438        -1.373301        -3.886394
 H         3.309963        -2.289575        -2.458009
 H        -0.151118        -2.332556        -2.944391
 H         1.196531        -2.774343        -1.833650
 H         0.281061         0.133525        -2.732671
