19
Iteration:  4599charge 0 multiplicity 1
 C         0.305631         0.431463         0.462358
 C         1.171218        -0.198192        -0.676818
 O         1.683474        -1.535408        -0.385785
 C         2.722521        -0.475630        -0.665137
 C         2.834641        -0.290657        -2.121589
 C         3.034799        -1.561254        -2.952996
 O         1.800644        -2.201576        -3.244665
 C         0.667064        -1.281081        -3.092975
 C         1.117058        -0.105360        -2.218904
 H         0.460057        -0.196335         1.393936
 H         0.399820         1.383234         0.668952
 H        -0.780799         0.287108         0.287620
 H         3.410376        -0.201466         0.053668
 H         3.159113         0.662118        -2.339019
 H         3.472775        -1.307747        -3.888238
 H         3.848635        -2.131125        -2.499845
 H         0.376992        -0.949151        -4.166216
 H        -0.127219        -1.853233        -2.702818
 H         0.735322         0.728277        -2.759386
