19
Iteration:  4725
 C         0.325532         0.331142         0.392410
 C         1.162554        -0.255615        -0.645466
 O         1.677178        -1.583953        -0.447054
 C         2.621222        -0.383612        -0.652680
 C         2.801233        -0.283044        -2.172198
 C         3.020509        -1.626004        -2.918229
 O         1.775275        -2.148368        -3.235686
 C         0.753878        -1.193344        -3.047750
 C         1.179742        -0.063979        -2.192699
 H         0.909555         0.667506         1.159718
 H        -0.245715         1.266579         0.082625
 H        -0.348387        -0.318715         0.839305
 H         3.387481        -0.510037         0.036963
 H         3.410410         0.644006        -2.538754
 H         3.712205        -1.415223        -3.734510
 H         3.277416        -2.310336        -2.153724
 H         0.352805        -0.878464        -4.105324
 H        -0.098335        -1.839425        -2.559541
 H         0.960402         0.967248        -2.499013
