19
Iteration:  1575
 C         0.262982         0.360437         0.288266
 C         1.239525        -0.251699        -0.648630
 O         2.119856        -1.314087        -0.317546
 C         2.712846        -0.020676        -0.874011
 C         2.551167        -0.054652        -2.385103
 C         2.937755        -1.380412        -3.200965
 O         1.875005        -2.406007        -3.105280
 C         0.639226        -1.766431        -2.596776
 C         0.946802        -0.377129        -2.138845
 H         0.099356         1.369498         0.079268
 H        -0.782761        -0.170447         0.243642
 H         0.646797         0.351360         1.417267
 H         3.541105         0.389363        -0.254371
 H         2.643168         0.868208        -2.797084
 H         3.218868        -1.172212        -4.308903
 H         3.706576        -1.909564        -2.591824
 H        -0.135518        -1.749281        -3.475923
 H         0.196196        -2.269677        -1.707238
 H         0.418429         0.563725        -2.396168
