19
Iteration:  4449
 C         0.176180         0.422958         0.461245
 C         1.147513        -0.221569        -0.684998
 O         1.887702        -1.536967        -0.407111
 C         2.648284        -0.399967        -0.666492
 C         2.783049        -0.342618        -2.172234
 C         3.035025        -1.686652        -2.780218
 O         1.766674        -2.082405        -3.443865
 C         0.657740        -1.265707        -3.033601
 C         1.192747        -0.101294        -2.147423
 H         0.624705        -0.074982         1.400839
 H         0.286409         1.528840         0.482747
 H        -0.844271         0.224473         0.232849
 H         3.423601        -0.409368        -0.044900
 H         3.365124         0.540923        -2.571500
 H         3.618015        -1.561756        -3.662579
 H         3.272132        -2.560814        -2.260294
 H         0.269515        -0.758670        -3.943364
 H        -0.137578        -1.889670        -2.455180
 H         0.905770         0.875883        -2.517226
