19
Iteration:  3542
 C         0.404892         0.494219         0.464888
 C         1.185889        -0.175844        -0.622541
 O         1.875271        -1.361744        -0.314208
 C         2.689224        -0.259291        -0.711831
 C         2.568619        -0.265124        -2.264507
 C         3.033214        -1.521082        -3.022440
 O         1.861519        -2.128571        -3.472285
 C         0.658981        -1.676265        -2.812312
 C         0.996711        -0.336810        -2.139387
 H        -0.640156         0.046800         0.419818
 H         0.815552         0.273688         1.449901
 H         0.276542         1.530170         0.204754
 H         3.495024         0.139305         0.006316
 H         2.789361         0.680942        -2.777794
 H         3.662994        -1.265541        -3.882267
 H         3.608011        -2.200998        -2.366081
 H        -0.099872        -1.605673        -3.554460
 H         0.396915        -2.437959        -2.096725
 H         0.398326         0.437528        -2.759812
