19
Iteration:  1986charge 0 multiplicity 1
 C         0.252667         0.458421         0.402509
 C         1.279220        -0.252735        -0.500924
 O         2.193988        -1.251724        -0.140102
 C         2.654297        -0.017338        -0.937063
 C         2.434897        -0.180267        -2.462532
 C         2.920255        -1.397889        -3.199307
 O         1.948730        -2.423380        -3.099128
 C         0.658262        -1.781235        -2.933526
 C         0.902283        -0.406708        -2.048515
 H         0.234677         1.706764         0.225184
 H        -0.706041        -0.042197         0.152355
 H         0.320276         0.177210         1.447449
 H         3.487131         0.688569        -0.446996
 H         2.893423         0.815800        -2.904424
 H         3.048438        -1.231325        -4.261391
 H         3.887859        -1.855556        -2.861449
 H         0.157004        -1.381143        -3.813600
 H         0.027587        -2.587546        -2.403709
 H         0.100115         0.305195        -2.369848
