19
Iteration:  3835charge 0 multiplicity 1
 C         0.365341         0.416741         0.454582
 C         1.192386        -0.169073        -0.671160
 O         1.906584        -1.449176        -0.179930
 C         2.639444        -0.317979        -0.675074
 C         2.628561        -0.355195        -2.226446
 C         2.956635        -1.599462        -2.851508
 O         1.833866        -1.945116        -3.673528
 C         0.606078        -1.570769        -2.886322
 C         1.115519        -0.236860        -2.229266
 H        -0.263412         1.183615         0.054732
 H        -0.195856        -0.353577         0.988779
 H         1.103306         1.010804         1.119311
 H         3.486931         0.061354         0.025092
 H         3.237866         0.498591        -2.584217
 H         3.799126        -1.528953        -3.577773
 H         3.162026        -2.430003        -2.102999
 H        -0.292491        -1.420228        -3.587281
 H         0.371367        -2.369383        -2.182866
 H         0.635707         0.522883        -2.719467
