19
Iteration:  1063charge 0 multiplicity 1
 C         0.384613         0.590684         0.334543
 C         1.191968        -0.206555        -0.562794
 O         2.209667        -1.108678        -0.006087
 C         2.618270         0.026046        -0.793671
 C         2.439486        -0.304956        -2.317313
 C         2.941430        -1.549320        -3.090966
 O         1.768870        -2.102107        -3.679918
 C         0.792992        -2.024174        -2.738987
 C         0.885242        -0.609471        -2.051581
 H        -0.045760         1.481634        -0.160767
 H        -0.516927         0.047904         0.750820
 H         1.058725         0.994382         1.102024
 H         3.263662         0.749885        -0.193313
 H         2.463634         0.565602        -2.988412
 H         3.644045        -1.317179        -3.911716
 H         3.425095        -2.378203        -2.580919
 H        -0.158734        -2.189146        -3.103105
 H         0.912908        -2.805458        -1.979776
 H         0.197255         0.034026        -2.544053
