19
Iteration:  4930charge 0 multiplicity 1
 C         0.276121         0.361599         0.248282
 C         1.228655        -0.285672        -0.627833
 O         1.806491        -1.541225        -0.157546
 C         2.713742        -0.455508        -0.573221
 C         2.725658        -0.356427        -2.036074
 C         3.032741        -1.573776        -2.988970
 O         1.701532        -2.115549        -3.402786
 C         0.662777        -1.150626        -3.158521
 C         1.186530        -0.181346        -2.157252
 H         0.713811         0.930748         0.991777
 H        -0.102444         1.230204        -0.459120
 H        -0.558746        -0.182684         0.654782
 H         3.326082        -0.121687         0.159153
 H         3.171245         0.586363        -2.488173
 H         3.703578        -1.373242        -3.885767
 H         3.530239        -2.404539        -2.354613
 H         0.322594        -0.721817        -4.222639
 H        -0.175782        -1.743180        -2.853719
 H         0.963322         0.867338        -2.278001
