19
Iteration:  4125
 C         0.280527         0.380831         0.463540
 C         1.133536        -0.274302        -0.603036
 O         1.868806        -1.476127        -0.294616
 C         2.684773        -0.250653        -0.618890
 C         2.772353        -0.370435        -2.121822
 C         2.961901        -1.787119        -2.816212
 O         1.775308        -1.951866        -3.673060
 C         0.638624        -1.271419        -3.084862
 C         1.177650        -0.232941        -2.129421
 H         0.986361         0.876635         1.175517
 H        -0.493956         1.104721         0.065306
 H        -0.413565        -0.298990         0.973116
 H         3.494330        -0.115673        -0.030906
 H         3.262206         0.460522        -2.630731
 H         3.912869        -1.786285        -3.369152
 H         2.923405        -2.588409        -2.105819
 H         0.153357        -1.009944        -3.981402
 H         0.075317        -2.058348        -2.413477
 H         0.940833         0.809357        -2.515375
