19
Iteration:   515charge 0 multiplicity 1
 C         0.232084         0.212801         0.276047
 C         1.257401        -0.200818        -0.625744
 O         2.181889        -1.174254        -0.260264
 C         2.723881        -0.024876        -0.917421
 C         2.504464        -0.159884        -2.439492
 C         2.979035        -1.496342        -3.070588
 O         1.840252        -2.357381        -3.142162
 C         0.578124        -1.700961        -2.616037
 C         0.974830        -0.315040        -2.149644
 H        -0.713416         0.700424        -0.228592
 H         0.056680        -0.603716         0.992684
 H         0.543556         0.953003         1.097628
 H         3.577538         0.575315        -0.428472
 H         2.748526         0.656884        -3.144931
 H         3.224458        -1.068266        -4.131148
 H         3.899989        -2.083763        -2.716383
 H        -0.166885        -1.760933        -3.487871
 H         0.095175        -2.316543        -1.842704
 H         0.335983         0.545438        -2.382482
