19
Iteration:  4678charge 0 multiplicity 1
 C         0.186800         0.277335         0.248327
 C         1.217157        -0.253110        -0.623778
 O         1.773431        -1.456250        -0.213170
 C         2.701457        -0.453376        -0.670713
 C         2.811702        -0.368361        -2.194482
 C         3.022828        -1.651216        -3.015130
 O         1.714499        -2.120462        -3.363289
 C         0.688143        -1.203281        -2.969561
 C         1.253813        -0.027954        -2.099759
 H         0.259822         0.174318         1.344063
 H         0.033584         1.292094        -0.015742
 H        -0.714470        -0.243870        -0.043016
 H         3.392054         0.060528         0.145365
 H         3.667894         0.401006        -2.319612
 H         3.448204        -1.238096        -3.945920
 H         3.594218        -2.399296        -2.428044
 H         0.243753        -0.869474        -3.945234
 H        -0.099912        -1.803643        -2.451963
 H         0.724251         0.878356        -2.444782
