19
Iteration:   982
 C         0.237072         0.388193         0.318179
 C         1.268396        -0.144151        -0.595027
 O         2.136329        -1.237694        -0.288480
 C         2.707214         0.014807        -0.902208
 C         2.487911        -0.193389        -2.401199
 C         2.948725        -1.494908        -3.182931
 O         1.831525        -2.256250        -3.319292
 C         0.687953        -1.888606        -2.475823
 C         0.968387        -0.382142        -2.088344
 H        -0.002892         1.436899         0.085628
 H        -0.685425        -0.258631         0.274051
 H         0.548283         0.236545         1.386101
 H         3.518993         0.467467        -0.425510
 H         2.756531         0.736072        -2.929625
 H         3.351376        -1.171079        -4.156089
 H         3.634854        -2.049857        -2.574512
 H        -0.237362        -1.899505        -3.067962
 H         0.737176        -2.576983        -1.650817
 H         0.176398         0.258275        -2.522238
