19
Iteration:  4928charge 0 multiplicity 1
 C         0.280663         0.378450         0.256747
 C         1.234104        -0.301335        -0.634502
 O         1.815041        -1.542689        -0.166506
 C         2.691486        -0.460101        -0.572735
 C         2.711636        -0.349698        -2.040892
 C         3.013219        -1.579523        -2.986706
 O         1.719132        -2.108503        -3.397839
 C         0.659375        -1.169053        -3.170415
 C         1.201311        -0.162326        -2.162574
 H         0.710594         0.983850         1.095143
 H        -0.083877         1.168116        -0.356597
 H        -0.606614        -0.188075         0.650616
 H         3.351229        -0.065773         0.275456
 H         3.183106         0.491565        -2.485690
 H         3.740886        -1.388749        -3.884993
 H         3.521525        -2.428942        -2.399492
 H         0.325835        -0.733846        -4.183989
 H        -0.203963        -1.758648        -2.840663
 H         0.950370         0.921212        -2.334032
