19
Iteration:  2059
 C         0.274009         0.493519         0.406396
 C         1.198050        -0.113410        -0.611867
 O         1.977911        -1.350014        -0.380113
 C         2.649015        -0.263712        -0.954087
 C         2.535769        -0.128074        -2.457212
 C         2.908482        -1.301675        -3.222876
 O         2.035331        -2.357381        -3.018377
 C         0.740320        -1.853172        -2.597319
 C         0.931318        -0.304579        -2.109780
 H        -0.459066         1.071893        -0.038382
 H        -0.356584        -0.396705         0.881273
 H         0.798215         0.893414         1.225481
 H         3.601603        -0.005395        -0.356915
 H         2.849939         0.825270        -2.792524
 H         2.876369        -1.025414        -4.381395
 H         3.917022        -1.696722        -3.076192
 H         0.138066        -1.849316        -3.544912
 H         0.325233        -2.475931        -1.747244
 H         0.205240         0.496406        -2.457869
