19
Iteration:  3127
 C         0.185122         0.282373         0.381813
 C         1.214494        -0.131265        -0.621771
 O         2.221706        -1.224924        -0.210100
 C         2.678612        -0.034211        -0.836831
 C         2.611773        -0.247823        -2.345411
 C         2.938369        -1.524377        -3.113378
 O         1.819244        -2.319490        -3.217791
 C         0.585130        -1.652286        -2.817333
 C         1.005783        -0.339724        -2.181704
 H        -0.752999        -0.463539         0.393450
 H         0.497654        -0.084883         1.376050
 H        -0.065882         1.289140         0.437789
 H         3.530871         0.582798        -0.291974
 H         3.015513         0.647282        -2.879121
 H         3.388605        -1.260239        -4.142367
 H         3.716134        -2.033146        -2.593841
 H        -0.102191        -1.487609        -3.637919
 H         0.070757        -2.360132        -2.081332
 H         0.368448         0.520517        -2.547259
