19
Iteration:  3773
 C         0.359025         0.547660         0.248559
 C         1.246646        -0.256059        -0.602255
 O         1.818120        -1.473071        -0.128920
 C         2.716490        -0.375694        -0.526088
 C         2.698621        -0.290133        -2.165768
 C         2.964524        -1.483545        -3.148999
 O         1.746895        -1.953427        -3.689134
 C         0.699401        -1.656628        -2.731359
 C         1.066634        -0.336928        -2.158962
 H         0.843153         1.615619         0.366821
 H        -0.624989         0.860414        -0.141225
 H         0.180653        -0.009305         1.122210
 H         3.455224        -0.089308         0.158395
 H         3.140294         0.624339        -2.523042
 H         3.610615        -1.195614        -3.934452
 H         3.435589        -2.246112        -2.507171
 H        -0.251633        -1.651387        -3.152721
 H         0.711362        -2.475016        -1.909718
 H         0.381279         0.475888        -2.611607
