19
Iteration:  3987
 C         0.383430         0.549525         0.565853
 C         1.145270        -0.127023        -0.574347
 O         1.783092        -1.542617        -0.303761
 C         2.613604        -0.322572        -0.590883
 C         2.655296        -0.355636        -2.138543
 C         3.063589        -1.611524        -2.967284
 O         1.802853        -1.994737        -3.710659
 C         0.671221        -1.567684        -2.938922
 C         1.184330        -0.249929        -2.205757
 H         0.072911        -0.189541         1.120695
 H         0.882777         1.322336         1.167946
 H        -0.546306         1.010906         0.037513
 H         3.344234        -0.004640         0.052465
 H         2.988253         0.581815        -2.509528
 H         3.819342        -1.430511        -3.727967
 H         3.242735        -2.489616        -2.489868
 H        -0.162484        -1.491709        -3.676456
 H         0.547849        -2.214520        -2.057900
 H         0.772326         0.590820        -2.732565
