19
Iteration:  4268charge 0 multiplicity 1
 C         0.323397         0.502337         0.382389
 C         1.185703        -0.188876        -0.577932
 O         1.715309        -1.553684        -0.299745
 C         2.625329        -0.406310        -0.634246
 C         2.743235        -0.310495        -2.160734
 C         3.026508        -1.624664        -2.947846
 O         1.841198        -1.964395        -3.607817
 C         0.695474        -1.520284        -2.870590
 C         1.158052        -0.158809        -2.182491
 H         0.657489         0.188001         1.339893
 H         0.266103         1.643459         0.369822
 H        -0.762309         0.178544         0.357870
 H         3.409180        -0.209875         0.062366
 H         3.299065         0.545266        -2.507520
 H         3.767556        -1.604622        -3.744949
 H         3.229731        -2.460854        -2.330805
 H         0.055231        -1.246236        -3.695983
 H         0.264810        -2.220985        -2.117108
 H         0.753983         0.831916        -2.558510
