19
Iteration:    19charge 0 multiplicity 1
 C         0.247808         0.351992         0.532463
 C         1.196486        -0.055689        -0.619617
 O         2.096014        -1.090023        -0.173923
 C         2.694207         0.046898        -1.028697
 C         2.468109        -0.216579        -2.508322
 C         3.017865        -1.640989        -2.907913
 O         1.820233        -2.201967        -3.582977
 C         0.786768        -1.928005        -2.541072
 C         0.912414        -0.430310        -2.170833
 H         0.860669         0.866681         1.228315
 H        -0.770179         0.938476         0.396516
 H        -0.197915        -0.562612         0.929643
 H         3.629719         0.307772        -0.631400
 H         2.723621         0.596950        -3.211250
 H         3.886337        -1.602101        -3.615629
 H         3.150772        -2.128596        -1.955856
 H        -0.150088        -2.185604        -3.002750
 H         1.114589        -2.496046        -1.627490
 H         0.155122         0.293969        -2.717247
