19
Iteration:  4862
 C         0.289140         0.340213         0.374990
 C         1.154193        -0.145582        -0.693565
 O         1.711851        -1.549475        -0.409515
 C         2.652153        -0.526606        -0.634308
 C         2.794866        -0.243410        -2.176856
 C         3.072090        -1.573849        -2.909389
 O         1.759373        -2.167613        -3.296576
 C         0.634964        -1.283710        -2.959848
 C         1.271189        -0.028585        -2.237420
 H         0.373270        -0.367163         1.276762
 H         0.422834         1.353875         0.622692
 H        -0.784511         0.188778         0.014752
 H         3.508866        -0.287264         0.159215
 H         3.363052         0.620843        -2.210069
 H         3.776631        -1.384870        -3.783718
 H         3.444689        -2.403439        -2.211543
 H         0.058943        -0.936702        -3.951312
 H        -0.092683        -1.853764        -2.357909
 H         0.902033         0.946990        -2.663011
