19
Iteration:   400
 C         0.280812         0.544212         0.273643
 C         1.213315        -0.213361        -0.568951
 O         2.243718        -1.127300        -0.030032
 C         2.637969         0.007897        -0.890973
 C         2.470664        -0.302040        -2.402077
 C         2.978533        -1.520021        -3.036838
 O         1.738681        -2.024044        -3.649277
 C         0.787628        -2.036231        -2.616668
 C         0.906133        -0.594230        -2.032253
 H         0.400409         1.584575         0.256308
 H        -0.874125         0.223689         0.016575
 H         0.445144         0.210762         1.269922
 H         3.288812         0.787717        -0.535831
 H         2.645386         0.632723        -2.908275
 H         3.754531        -1.477094        -3.732916
 H         3.161903        -2.278621        -2.223838
 H        -0.126471        -2.368391        -3.027960
 H         1.022311        -2.783565        -1.797002
 H         0.213836         0.137428        -2.396780
