19
Iteration:  1332charge 0 multiplicity 1
 C         0.334830         0.440126         0.424392
 C         1.221701        -0.216337        -0.590518
 O         2.143068        -1.162293        -0.091293
 C         2.653575         0.028009        -0.827940
 C         2.434752        -0.218562        -2.381574
 C         2.982839        -1.486828        -3.086880
 O         1.827970        -2.333303        -3.430089
 C         0.684600        -1.843122        -2.827761
 C         0.960103        -0.427931        -2.140585
 H        -0.346892         1.357639        -0.017604
 H        -0.291849        -0.457550         0.937387
 H         0.956853         0.715774         1.236361
 H         3.567179         0.494134        -0.182570
 H         2.619430         0.653219        -2.938103
 H         3.402080        -1.371612        -4.122981
 H         3.679555        -2.039519        -2.348134
 H        -0.120946        -1.587116        -3.536846
 H         0.363463        -2.607965        -2.188115
 H         0.314829         0.339768        -2.558204
