19
Iteration:  3662charge 0 multiplicity 1
 C         0.239230         0.300194         0.381229
 C         1.267732        -0.306270        -0.589770
 O         2.102639        -1.343154        -0.237706
 C         2.720997        -0.102078        -0.733186
 C         2.659730        -0.207976        -2.294354
 C         2.867470        -1.729070        -2.790232
 O         1.757199        -2.063923        -3.585702
 C         0.595697        -1.512001        -2.923180
 C         1.076033        -0.250195        -2.132807
 H         0.291396        -0.300396         1.307899
 H         0.552238         1.335498         0.539539
 H        -0.814434         0.308741         0.027476
 H         3.578410         0.319146        -0.011606
 H         3.041485         0.546429        -3.012163
 H         3.723917        -1.889289        -3.437843
 H         2.938705        -2.390015        -1.971433
 H         0.046813        -1.098697        -3.751314
 H         0.165797        -2.488705        -2.432304
 H         0.543596         0.735054        -2.336429
