19
Iteration:  1686
 C         0.258425         0.370614         0.387349
 C         1.257446        -0.217794        -0.545216
 O         2.260983        -1.082498        -0.089159
 C         2.628507         0.104396        -0.897971
 C         2.491322        -0.243700        -2.323974
 C         2.928561        -1.611989        -2.929865
 O         1.770813        -2.169767        -3.714675
 C         0.654815        -1.851841        -2.749601
 C         0.998642        -0.547353        -2.035811
 H        -0.321048         1.043912        -0.151951
 H        -0.399289        -0.457745         0.819737
 H         0.808987         0.991846         1.202365
 H         3.577092         0.748703        -0.607756
 H         2.583673         0.599408        -2.915428
 H         3.892425        -1.686086        -3.559601
 H         3.161134        -2.375869        -2.194966
 H        -0.237685        -1.635408        -3.467505
 H         0.389676        -2.706133        -2.029002
 H         0.375900         0.365010        -2.332372
