19
Iteration:   363charge 0 multiplicity 1
 C         0.181698         0.339355         0.317078
 C         1.243045        -0.234291        -0.579047
 O         2.253715        -1.091207        -0.115234
 C         2.642123         0.091922        -0.918817
 C         2.580785        -0.261366        -2.406973
 C         3.007506        -1.597724        -3.067270
 O         1.738990        -2.174242        -3.493383
 C         0.655876        -1.881842        -2.605587
 C         0.980128        -0.441265        -2.064076
 H        -0.023605         1.515279         0.395023
 H        -0.715833         0.018510        -0.051834
 H         0.346110        -0.063785         1.381504
 H         3.367053         0.772084        -0.281132
 H         2.724377         0.552952        -3.134883
 H         3.647273        -1.491842        -4.049428
 H         3.490184        -2.214596        -2.363815
 H        -0.286784        -1.911564        -3.225868
 H         0.673060        -2.592004        -1.774395
 H         0.354376         0.363455        -2.494428
