19
Iteration:  3766charge 0 multiplicity 1
 C         0.330805         0.557657         0.203779
 C         1.255699        -0.224095        -0.537523
 O         1.808002        -1.476099        -0.145626
 C         2.710214        -0.381747        -0.532576
 C         2.616775        -0.236595        -2.195562
 C         2.983766        -1.525323        -3.127645
 O         1.767906        -1.945128        -3.735344
 C         0.666657        -1.686684        -2.657492
 C         1.157921        -0.325165        -2.118295
 H         0.945137         1.373317         0.540798
 H        -0.585997         0.839558        -0.331092
 H         0.119027        -0.041992         1.115606
 H         3.570877        -0.146653         0.109800
 H         3.063115         0.644898        -2.696057
 H         3.652095        -1.128823        -3.952729
 H         3.479728        -2.361259        -2.638324
 H        -0.361838        -1.698927        -3.226701
 H         0.612411        -2.601963        -1.994778
 H         0.565655         0.597668        -2.485011
