19
Iteration:  1105charge 0 multiplicity 1
 C         0.183124         0.356895         0.329124
 C         1.254500        -0.097849        -0.622844
 O         2.267889        -1.117130        -0.179876
 C         2.742844         0.050137        -0.792325
 C         2.492969        -0.300272        -2.390226
 C         2.934207        -1.644629        -2.992070
 O         1.712215        -2.121259        -3.566614
 C         0.659127        -1.873310        -2.592750
 C         1.015884        -0.454265        -2.114122
 H        -0.651638         0.723471        -0.211420
 H        -0.299445        -0.688411         0.715149
 H         0.392366         1.107472         1.026244
 H         3.621476         0.718525        -0.354132
 H         2.805949         0.578540        -2.954976
 H         3.619819        -1.553234        -3.818327
 H         3.427733        -2.202731        -2.204673
 H        -0.217996        -2.074582        -3.140285
 H         0.727408        -2.642552        -1.755968
 H         0.451917         0.291278        -2.493552
