19
Iteration:  5000
 C         0.263577         0.229742         0.269463
 C         1.218743        -0.208912        -0.669027
 O         1.671650        -1.544671        -0.380451
 C         2.665291        -0.478121        -0.603609
 C         2.827997        -0.281355        -2.178067
 C         3.025460        -1.586674        -2.984159
 O         1.688755        -2.165544        -3.101013
 C         0.745011        -1.144048        -3.076595
 C         1.267493        -0.022670        -2.209505
 H         0.627987         0.255953         1.388051
 H        -0.044740         1.259996         0.142223
 H        -0.623581        -0.444071         0.379189
 H         3.426142        -0.165718         0.259183
 H         3.467312         0.591728        -2.461049
 H         3.508482        -1.596635        -3.958070
 H         3.529487        -2.338050        -2.447507
 H         0.310426        -0.760855        -4.113738
 H        -0.212770        -1.582697        -2.624206
 H         1.015891         0.912080        -2.670621
