19
Iteration:  4300charge 0 multiplicity 1
 C         0.374391         0.600052         0.441864
 C         1.144624        -0.230058        -0.568538
 O         1.707048        -1.490295        -0.100893
 C         2.616442        -0.430817        -0.567366
 C         2.717925        -0.390879        -2.077476
 C         3.061693        -1.625789        -3.032030
 O         1.858757        -1.890294        -3.785075
 C         0.687978        -1.555990        -2.971957
 C         1.123621        -0.251947        -2.223475
 H         0.928383         0.643023         1.359657
 H         0.162857         1.692627         0.100727
 H        -0.512516        -0.010459         0.704151
 H         3.355299        -0.073178         0.131617
 H         3.156856         0.570046        -2.371638
 H         3.912152        -1.610569        -3.734351
 H         3.185937        -2.520452        -2.355737
 H        -0.013465        -1.468421        -3.833680
 H         0.260762        -2.368363        -2.457978
 H         0.726682         0.732882        -2.620788
