19
Iteration:  3168
 C         0.172756         0.319112         0.346706
 C         1.265111        -0.247973        -0.667777
 O         2.156362        -1.343525        -0.258444
 C         2.703251        -0.096639        -0.855250
 C         2.575323        -0.180934        -2.366865
 C         2.937801        -1.465071        -3.173010
 O         1.842067        -2.268056        -3.001932
 C         0.593108        -1.624975        -2.841214
 C         1.027000        -0.324294        -2.093095
 H        -0.333215        -0.525861         0.865914
 H         0.714159         0.928307         1.078960
 H        -0.566452         0.823430        -0.314830
 H         3.554300         0.384701        -0.286565
 H         2.779934         0.786728        -2.933617
 H         3.089400        -1.084732        -4.204349
 H         3.855081        -2.088312        -2.856922
 H         0.154296        -1.487063        -3.859898
 H        -0.087317        -2.292841        -2.298376
 H         0.525491         0.655770        -2.434921
