19
Iteration:  4440
 C         0.246099         0.354117         0.388125
 C         1.139646        -0.189113        -0.612916
 O         1.883810        -1.562860        -0.426799
 C         2.613285        -0.375062        -0.681721
 C         2.766312        -0.340976        -2.155626
 C         3.015352        -1.704195        -2.791066
 O         1.794237        -2.075354        -3.457193
 C         0.601947        -1.226008        -3.003084
 C         1.228698        -0.108695        -2.177902
 H         0.455584        -0.036304         1.356190
 H         0.510227         1.460216         0.499714
 H        -0.773589         0.209260         0.327980
 H         3.375365        -0.103112         0.075299
 H         3.310855         0.582921        -2.550108
 H         3.926798        -1.644853        -3.376411
 H         3.199206        -2.399997        -1.952850
 H        -0.006510        -0.955910        -3.972613
 H        -0.201775        -1.806475        -2.409295
 H         0.959462         0.849614        -2.687683
