19
Iteration:  4213charge 0 multiplicity 1
 C         0.167895         0.222687         0.251502
 C         1.315354        -0.235971        -0.682921
 O         1.838525        -1.421065        -0.168509
 C         2.761803        -0.433133        -0.577018
 C         2.810307        -0.316865        -2.232989
 C         3.011996        -1.634344        -2.890588
 O         1.698882        -2.025009        -3.505173
 C         0.540665        -1.318115        -2.912409
 C         1.257033        -0.105618        -2.192323
 H         0.318654        -0.161088         1.241601
 H         0.148851         1.376830         0.277182
 H        -0.776513        -0.076007        -0.259721
 H         3.417020        -0.033817         0.056336
 H         3.247376         0.521673        -2.735335
 H         3.710594        -1.621026        -3.727481
 H         3.301861        -2.397811        -2.243407
 H        -0.123090        -0.922945        -3.678995
 H        -0.185692        -1.769417        -2.122384
 H         0.905713         0.946767        -2.422231
