19
Iteration:  3736charge 0 multiplicity 1
 C         0.212070         0.591905         0.353154
 C         1.220825        -0.195510        -0.529509
 O         1.957079        -1.418164        -0.122899
 C         2.695088        -0.407459        -0.636531
 C         2.647611        -0.348408        -2.196885
 C         2.974834        -1.608845        -3.096520
 O         1.768843        -1.895364        -3.680328
 C         0.691192        -1.656121        -2.756616
 C         1.077184        -0.288470        -2.214877
 H         0.766909         1.046923         1.110337
 H        -0.484475         1.156702        -0.288149
 H        -0.319917        -0.218704         1.067510
 H         3.712661        -0.023109        -0.157053
 H         3.309744         0.485637        -2.587537
 H         3.685217        -1.349448        -3.962426
 H         3.408401        -2.618618        -2.643916
 H        -0.240320        -1.725018        -3.388430
 H         0.748417        -2.370298        -2.015047
 H         0.511692         0.466038        -2.587623
