19
Iteration:  1034charge 0 multiplicity 1
 C         0.382522         0.634323         0.453789
 C         1.175552        -0.158602        -0.530136
 O         2.084677        -1.157462        -0.078080
 C         2.633495        -0.058298        -0.862719
 C         2.395816        -0.278239        -2.423408
 C         3.032235        -1.450126        -3.135745
 O         1.824544        -2.165306        -3.623604
 C         0.810310        -2.031808        -2.641798
 C         0.908881        -0.616597        -2.088007
 H         0.416089         1.756369         0.119002
 H        -0.596875         0.377203         0.511562
 H         0.926504         0.649785         1.486308
 H         3.319402         0.399451        -0.271118
 H         2.225837         0.633271        -3.060150
 H         3.649659        -1.122985        -4.051484
 H         3.562011        -2.185043        -2.442171
 H        -0.350120        -2.316148        -3.033633
 H         1.060567        -2.739459        -1.805439
 H         0.120525         0.097689        -2.726737
