19
Iteration:  2230
 C         0.147766         0.170099         0.325510
 C         1.299997        -0.072557        -0.569854
 O         2.266534        -1.195502        -0.243057
 C         2.747493         0.027633        -0.910173
 C         2.527967        -0.154931        -2.433893
 C         2.962454        -1.517582        -3.092351
 O         1.808236        -2.374466        -3.118854
 C         0.560262        -1.743355        -2.744501
 C         0.974622        -0.301762        -2.152038
 H        -0.610748         0.812048        -0.269829
 H        -0.350403        -0.714040         0.500847
 H         0.411279         0.632523         1.355419
 H         3.419534         0.584846        -0.347410
 H         2.821562         0.689042        -3.056309
 H         3.249358        -1.255104        -4.167462
 H         3.794734        -1.938892        -2.499671
 H        -0.143415        -1.872634        -3.624177
 H         0.122148        -2.354593        -1.910161
 H         0.400793         0.518943        -2.486478
