19
Iteration:  2200
 C         0.230256         0.024077         0.361160
 C         1.238334        -0.129424        -0.676715
 O         2.225761        -1.123525        -0.321155
 C         2.683671         0.122741        -0.957132
 C         2.513155        -0.181001        -2.475662
 C         2.971624        -1.604663        -2.927828
 O         1.789013        -2.369511        -3.091978
 C         0.580924        -1.654845        -2.733005
 C         1.006805        -0.260287        -2.175880
 H        -0.224294         0.967859         0.267149
 H        -0.589076        -0.764204         0.577474
 H         0.858425        -0.011132         1.247705
 H         3.431450         0.846273        -0.272296
 H         2.788165         0.567911        -3.193191
 H         3.480219        -1.467127        -3.823568
 H         3.702653        -1.973381        -2.192145
 H         0.023419        -1.680024        -3.630643
 H         0.078119        -2.180604        -1.982103
 H         0.467971         0.659103        -2.598044
