19
Iteration:  4487
 C         0.269082         0.384925         0.245351
 C         1.206920        -0.230219        -0.694039
 O         1.745398        -1.512627        -0.147001
 C         2.681635        -0.517207        -0.581294
 C         2.786514        -0.354904        -2.103735
 C         3.044493        -1.537344        -3.035096
 O         1.697382        -2.149057        -3.367419
 C         0.676623        -1.231820        -3.033012
 C         1.218472        -0.124583        -2.202258
 H         0.661897         0.276221         1.231965
 H        -0.006013         1.421752         0.151390
 H        -0.648925        -0.240196         0.357196
 H         3.590840        -0.256473         0.133314
 H         3.419479         0.461769        -2.418229
 H         3.431292        -1.066343        -3.969825
 H         3.851710        -2.195334        -2.596140
 H         0.181204        -0.773285        -3.999807
 H        -0.160876        -1.800987        -2.653904
 H         0.923551         0.953642        -2.384416
