19
Iteration:  1778
 C         0.298409         0.400953         0.413665
 C         1.220474        -0.201634        -0.682967
 O         2.045971        -1.279809        -0.284248
 C         2.728217        -0.122842        -0.904647
 C         2.409966        -0.155765        -2.413087
 C         2.970761        -1.421350        -3.147470
 O         1.904555        -2.268045        -3.229463
 C         0.704613        -1.842931        -2.598358
 C         0.939775        -0.350367        -2.141915
 H         0.197753         1.548979         0.177251
 H        -0.653343         0.004177         0.450477
 H         0.773876         0.277765         1.295991
 H         3.471392         0.278207        -0.291835
 H         2.563086         0.880900        -2.888774
 H         3.525877        -1.262636        -4.080101
 H         3.818261        -1.806981        -2.504563
 H        -0.127305        -1.980998        -3.245163
 H         0.582118        -2.388488        -1.646998
 H         0.319774         0.409416        -2.583560
