19
Iteration:  4441charge 0 multiplicity 1
 C         0.238274         0.360460         0.397463
 C         1.136665        -0.189941        -0.621042
 O         1.889175        -1.561319        -0.426432
 C         2.608280        -0.377487        -0.692264
 C         2.771404        -0.344063        -2.156884
 C         3.016580        -1.700947        -2.788601
 O         1.794474        -2.077282        -3.455692
 C         0.603528        -1.229733        -3.004009
 C         1.229588        -0.107272        -2.165532
 H         0.468440        -0.025814         1.329685
 H         0.502826         1.472075         0.505021
 H        -0.803033         0.207485         0.328458
 H         3.425633        -0.144073         0.103781
 H         3.299469         0.584563        -2.537257
 H         3.929286        -1.611115        -3.414857
 H         3.192765        -2.454294        -1.958554
 H        -0.009389        -0.946183        -3.976315
 H        -0.203444        -1.780374        -2.435096
 H         0.947808         0.847908        -2.703873
