19
Iteration:  4583charge 0 multiplicity 1
 C         0.371565         0.368191         0.456677
 C         1.166676        -0.153454        -0.606831
 O         1.661000        -1.515854        -0.500320
 C         2.573882        -0.441685        -0.598561
 C         2.686636        -0.315934        -2.153558
 C         3.066583        -1.503341        -3.012657
 O         1.807459        -2.251714        -3.173467
 C         0.729801        -1.309938        -3.082773
 C         1.224440        -0.080941        -2.196534
 H         0.773926        -0.009034         1.376782
 H         0.522436         1.626588         0.346139
 H        -0.664245        -0.001118         0.349543
 H         3.334119        -0.396973         0.306413
 H         3.393406         0.546763        -2.515535
 H         3.436035        -1.176896        -4.052788
 H         3.657407        -2.318987        -2.554450
 H         0.424683        -0.964653        -4.018695
 H        -0.209703        -1.877585        -2.735698
 H         0.932983         0.959389        -2.621010
