19
Iteration:  1010charge 0 multiplicity 1
 C         0.367017         0.535663         0.365097
 C         1.169514        -0.194019        -0.633180
 O         2.102416        -1.239624        -0.195923
 C         2.620382        -0.083769        -0.882149
 C         2.456988        -0.184488        -2.389069
 C         2.959596        -1.388315        -3.146974
 O         1.830546        -2.233607        -3.510317
 C         0.768556        -2.013700        -2.450551
 C         0.941266        -0.448946        -2.134335
 H         0.417255         1.671064         0.207663
 H        -0.679300         0.265551         0.337592
 H         0.775576         0.348203         1.400678
 H         3.333116         0.617676        -0.314522
 H         2.834814         0.777612        -2.840413
 H         3.522906        -1.115454        -4.100114
 H         3.543367        -2.078636        -2.444768
 H        -0.353251        -2.288108        -2.694304
 H         1.142661        -2.592734        -1.564433
 H         0.080840         0.167296        -2.674903
