19
Iteration:  3626
 C         0.126920         0.228338         0.334361
 C         1.202445        -0.187075        -0.600809
 O         2.146753        -1.326077        -0.147634
 C         2.729510        -0.167218        -0.732263
 C         2.695393        -0.332107        -2.275101
 C         2.923248        -1.695483        -2.987271
 O         1.717442        -2.163627        -3.486484
 C         0.663182        -1.466651        -2.878534
 C         1.093745        -0.106101        -2.135380
 H         0.048440        -0.520583         1.083845
 H         0.458783         1.153474         0.900240
 H        -0.971657         0.466719        -0.086132
 H         3.556691         0.364858        -0.239458
 H         3.225114         0.472727        -2.844362
 H         3.569133        -1.472699        -3.880723
 H         3.450281        -2.489677        -2.378156
 H        -0.126142        -1.176199        -3.662249
 H         0.009601        -2.120998        -2.167220
 H         0.688489         0.745321        -2.512421
