19
Iteration:  4752charge 0 multiplicity 1
 C         0.335761         0.400804         0.396351
 C         1.193945        -0.236348        -0.636425
 O         1.726937        -1.590056        -0.327364
 C         2.590057        -0.537067        -0.644459
 C         2.783307        -0.306464        -2.136986
 C         3.046655        -1.513650        -2.977154
 O         1.767312        -2.200023        -3.214006
 C         0.703417        -1.191386        -3.181865
 C         1.138829        -0.065054        -2.211971
 H         0.886036         0.828870         1.380403
 H        -0.155684         1.241915        -0.043131
 H        -0.509645        -0.340270         0.747515
 H         3.438031        -0.257017         0.137625
 H         3.403284         0.528582        -2.299626
 H         3.651134        -1.195898        -3.846610
 H         3.555204        -2.275846        -2.332942
 H         0.504754        -0.867138        -4.231016
 H        -0.122992        -1.760482        -2.831539
 H         0.870574         0.985850        -2.539272
