19
Iteration:  2232charge 0 multiplicity 1
 C         0.156532         0.183943         0.314370
 C         1.294676        -0.093567        -0.580239
 O         2.265220        -1.203941        -0.234371
 C         2.740700         0.029829        -0.911151
 C         2.518751        -0.174842        -2.415465
 C         2.954886        -1.498807        -3.110344
 O         1.814998        -2.373358        -3.125717
 C         0.566260        -1.750686        -2.723563
 C         0.979616        -0.295112        -2.155287
 H        -0.544496         0.804807        -0.235040
 H        -0.394233        -0.767024         0.516960
 H         0.426581         0.712123         1.259443
 H         3.496628         0.703565        -0.237140
 H         2.794089         0.650193        -3.042429
 H         3.211284        -1.310943        -4.145358
 H         3.792256        -1.907243        -2.526769
 H        -0.090539        -1.845484        -3.591772
 H         0.098713        -2.309462        -1.984210
 H         0.346989         0.568848        -2.495648
