19
Iteration:  1096
 C         0.164035         0.409932         0.300839
 C         1.244573        -0.143949        -0.622827
 O         2.294359        -1.123727        -0.099140
 C         2.696285         0.005467        -0.859715
 C         2.536001        -0.253378        -2.369049
 C         2.918425        -1.613820        -3.015827
 O         1.697325        -2.090244        -3.558102
 C         0.747629        -1.909258        -2.648231
 C         0.963191        -0.509327        -2.060804
 H        -0.587086         0.909518        -0.369010
 H        -0.283843        -0.408615         0.973315
 H         0.563172         1.065616         1.125233
 H         3.507701         0.629959        -0.407791
 H         2.867407         0.532253        -3.081155
 H         3.590634        -1.570737        -3.911298
 H         3.199205        -2.349102        -2.253052
 H        -0.209327        -1.885609        -3.081179
 H         0.858675        -2.656534        -1.856216
 H         0.336388         0.211632        -2.551078
