19
Iteration:  2034
 C         0.435518         0.423636         0.403890
 C         1.166365        -0.209437        -0.696493
 O         1.967376        -1.350848        -0.265372
 C         2.595278        -0.134307        -0.817477
 C         2.492476        -0.139593        -2.417264
 C         2.945904        -1.292096        -3.252925
 O         1.989544        -2.343348        -3.042971
 C         0.708208        -1.850054        -2.610989
 C         0.937752        -0.335604        -2.268531
 H         0.049813         1.267991        -0.145692
 H        -0.378373        -0.155686         0.778057
 H         1.073744         0.767011         1.347717
 H         3.270530         0.321891        -0.253658
 H         2.550751         0.920713        -2.732927
 H         2.982263        -1.127701        -4.389796
 H         3.938978        -1.688155        -3.000627
 H         0.003922        -2.008526        -3.500955
 H         0.399443        -2.317972        -1.758981
 H         0.368292         0.439085        -2.715718
