19
Iteration:  2810charge 0 multiplicity 1
 C         0.180039         0.145626         0.465739
 C         1.252876        -0.173366        -0.599688
 O         2.333119        -1.095643        -0.164409
 C         2.716976        -0.012201        -0.911418
 C         2.474560        -0.091124        -2.478156
 C         2.938853        -1.544938        -3.045763
 O         1.772881        -2.452607        -3.042446
 C         0.595438        -1.634159        -2.977930
 C         0.982328        -0.302356        -2.170043
 H        -0.704525         0.788430         0.099278
 H        -0.100323        -0.826623         0.803396
 H         0.524505         0.584355         1.348227
 H         3.450005         0.605692        -0.551435
 H         2.892857         0.638755        -3.160155
 H         3.258525        -1.479492        -4.085184
 H         3.706908        -2.165458        -2.556436
 H         0.299774        -1.347417        -4.067405
 H        -0.169448        -2.252593        -2.603641
 H         0.408071         0.450834        -2.525366
