19
Iteration:  2750
 C         0.303870         0.158218         0.443660
 C         1.215050        -0.244880        -0.636603
 O         2.202384        -1.249487        -0.398795
 C         2.705856         0.006540        -0.965170
 C         2.405212        -0.102074        -2.511055
 C         2.981732        -1.447987        -2.949971
 O         1.821809        -2.350039        -2.820683
 C         0.641466        -1.665913        -2.905247
 C         0.959173        -0.324060        -2.239184
 H         0.118549         1.154934         0.354026
 H        -0.650868        -0.317756         0.228564
 H         0.802405         0.025609         1.450907
 H         3.572007         0.464812        -0.387981
 H         2.739604         0.782944        -3.056188
 H         3.272221        -1.243658        -4.035946
 H         3.803995        -1.886860        -2.358948
 H         0.127344        -1.466439        -3.933123
 H        -0.112009        -2.220175        -2.241074
 H         0.342150         0.607962        -2.566724
