19
Iteration:  3535charge 0 multiplicity 1
 C         0.428332         0.496324         0.436477
 C         1.185785        -0.163950        -0.617005
 O         1.911919        -1.359402        -0.242492
 C         2.682597        -0.284385        -0.714786
 C         2.514924        -0.276744        -2.250453
 C         3.060590        -1.496560        -3.009907
 O         1.846894        -2.145809        -3.530781
 C         0.672783        -1.684048        -2.782418
 C         0.955639        -0.303712        -2.197063
 H        -0.734257         0.116146         0.408234
 H         0.745150         0.098096         1.491130
 H         0.426300         1.594101         0.343157
 H         3.400032         0.187489         0.013784
 H         2.729111         0.692940        -2.702028
 H         3.685037        -1.283125        -3.906757
 H         3.664169        -2.217376        -2.302663
 H        -0.091896        -1.796031        -3.687234
 H         0.287512        -2.508179        -2.126079
 H         0.681430         0.627481        -2.775704
