19
Iteration:  2598
 C         0.309273         0.489310         0.515573
 C         1.148285        -0.122251        -0.642061
 O         2.018868        -1.269794        -0.349740
 C         2.641781        -0.100568        -0.831244
 C         2.453379        -0.213701        -2.395579
 C         3.003081        -1.366126        -3.312357
 O         2.011489        -2.352127        -3.084243
 C         0.741712        -1.867624        -2.704123
 C         0.877658        -0.429967        -2.153941
 H         0.040813         1.522784         0.238522
 H        -0.549631        -0.174808         0.870332
 H         1.007602         0.391309         1.456579
 H         3.426571         0.301950        -0.357175
 H         2.662160         0.806985        -2.821352
 H         3.175429        -1.120447        -4.349278
 H         3.982133        -1.614366        -2.854998
 H         0.070684        -1.767050        -3.522342
 H         0.360422        -2.495012        -1.997552
 H         0.184549         0.295581        -2.662238
