19
Iteration:   880charge 0 multiplicity 1
 C         0.378500         0.040222         0.455179
 C         1.221299        -0.271451        -0.658616
 O         2.332915        -1.135064        -0.339289
 C         2.603270         0.175067        -0.944442
 C         2.455633        -0.156426        -2.497821
 C         2.890128        -1.544435        -2.929484
 O         1.755845        -2.424894        -2.822170
 C         0.611159        -1.554381        -3.053572
 C         0.937390        -0.354475        -2.193058
 H        -0.545952         0.696815         0.134015
 H        -0.042236        -0.794903         0.987563
 H         1.093111         0.660397         1.151938
 H         3.487129         0.568119        -0.426546
 H         2.757819         0.658149        -3.177973
 H         3.498195        -1.619208        -3.854365
 H         3.722716        -1.888204        -2.310818
 H         0.419876        -1.320247        -4.123849
 H        -0.381521        -1.803693        -2.722692
 H         0.351477         0.660925        -2.430700
