19
Iteration:  1605
 C         0.211417         0.279485         0.402665
 C         1.231856        -0.162700        -0.647815
 O         2.233379        -1.142246        -0.204862
 C         2.718875        -0.034983        -0.908002
 C         2.533453        -0.254947        -2.361115
 C         2.962139        -1.500391        -3.047105
 O         1.804979        -2.288327        -3.336907
 C         0.617448        -1.742301        -2.688101
 C         0.962885        -0.394723        -2.182171
 H        -0.385288         1.132694         0.006741
 H        -0.482650        -0.518737         0.590897
 H         0.627135         0.478990         1.346582
 H         3.342660         0.650639        -0.469044
 H         2.663034         0.740611        -2.923885
 H         3.417814        -1.306631        -3.964896
 H         3.516573        -2.132979        -2.380019
 H        -0.181355        -1.791581        -3.365167
 H         0.350316        -2.315313        -1.737965
 H         0.615906         0.550728        -2.489149
