19
Iteration:  4629charge 0 multiplicity 1
 C         0.238332         0.406652         0.252244
 C         1.208814        -0.307798        -0.625562
 O         1.814127        -1.602412        -0.217761
 C         2.698494        -0.322146        -0.575414
 C         2.741790        -0.358157        -2.136151
 C         3.045442        -1.596425        -3.016967
 O         1.756450        -2.180260        -3.369525
 C         0.646644        -1.176523        -3.044639
 C         1.191248        -0.116593        -2.136789
 H         0.086054        -0.136243         1.187009
 H         0.556303         1.501299         0.446219
 H        -0.771627         0.406197        -0.296448
 H         3.393043        -0.004286         0.114829
 H         3.073888         0.568112        -2.494594
 H         3.471720        -1.272747        -3.991932
 H         3.726625        -2.279864        -2.449121
 H         0.205925        -0.885685        -3.927726
 H        -0.084672        -1.741161        -2.509229
 H         0.904565         0.875443        -2.510364
