19
Iteration:  3262charge 0 multiplicity 1
 C         0.273274         0.397658         0.373780
 C         1.238918        -0.235625        -0.625025
 O         1.992536        -1.325086        -0.315500
 C         2.735181        -0.202097        -0.841251
 C         2.553833        -0.168056        -2.321740
 C         3.035886        -1.390081        -3.155001
 O         1.909543        -2.336282        -3.108333
 C         0.573778        -1.623368        -2.822861
 C         0.968092        -0.336821        -2.070327
 H         0.343942        -0.029600         1.442847
 H         0.503236         1.485280         0.322730
 H        -0.794952         0.086181         0.011018
 H         3.478829         0.267490        -0.353166
 H         2.724067         0.784113        -2.736802
 H         3.260053        -1.228332        -4.259438
 H         3.877470        -2.006464        -2.787522
 H         0.050142        -1.328889        -3.683058
 H         0.013414        -2.403438        -2.360416
 H         0.512296         0.520681        -2.487381
