19
Iteration:  4014charge 0 multiplicity 1
 C         0.405965         0.569137         0.366011
 C         1.200576        -0.256360        -0.594915
 O         1.657657        -1.500464        -0.058450
 C         2.682820        -0.456549        -0.653409
 C         2.682258        -0.303525        -2.184283
 C         3.111381        -1.562571        -3.043040
 O         1.779312        -1.893586        -3.723668
 C         0.708945        -1.577873        -2.892370
 C         1.090573        -0.281152        -2.143319
 H         0.061621        -0.020453         1.401737
 H         1.131768         1.327891         0.668997
 H        -0.560384         0.831113        -0.037007
 H         3.531027        -0.047132         0.029343
 H         3.224037         0.702554        -2.388644
 H         3.856205        -1.396747        -3.841380
 H         3.311592        -2.532994        -2.473957
 H        -0.040931        -1.298508        -3.651729
 H         0.502787        -2.397136        -2.125863
 H         0.333246         0.435186        -2.564036
