19
Iteration:  1370
 C         0.238225         0.381995         0.349199
 C         1.220558        -0.309962        -0.578141
 O         2.318291        -1.087436        -0.107526
 C         2.621743         0.131067        -0.888013
 C         2.476911        -0.239313        -2.374429
 C         2.957449        -1.705265        -2.890069
 O         1.756832        -2.110865        -3.595335
 C         0.673200        -1.806246        -2.764667
 C         1.008418        -0.511500        -2.078143
 H        -0.113542         1.242860        -0.048594
 H        -0.611741        -0.216541         0.586925
 H         0.759311         0.450868         1.376911
 H         3.372172         0.703865        -0.498187
 H         2.437260         0.623264        -3.200099
 H         3.767842        -1.632318        -3.602447
 H         3.107543        -2.391320        -2.033007
 H        -0.154847        -1.717186        -3.494212
 H         0.419992        -2.652273        -1.935831
 H         0.411897         0.353369        -2.451473
