19
Iteration:   387charge 0 multiplicity 1
 C         0.205604         0.476816         0.285677
 C         1.259606        -0.177265        -0.581252
 O         2.310694        -1.082281        -0.072439
 C         2.706252        -0.030382        -0.850150
 C         2.429870        -0.208908        -2.329457
 C         2.845243        -1.555733        -3.003853
 O         1.766833        -2.139666        -3.690764
 C         0.761908        -1.993340        -2.603072
 C         0.974426        -0.553694        -2.055886
 H         0.115803         1.629494         0.265578
 H        -0.754994         0.181044        -0.228051
 H         0.195107         0.162752         1.312622
 H         3.474244         0.673720        -0.310225
 H         2.570396         0.670128        -2.927932
 H         3.638859        -1.421551        -3.773410
 H         3.208404        -2.196503        -2.210512
 H        -0.191179        -2.025758        -3.055261
 H         0.982095        -2.811420        -1.891785
 H         0.280991         0.078802        -2.551200
