19
Iteration:  4273
 C         0.359501         0.485566         0.358938
 C         1.164273        -0.164205        -0.611012
 O         1.695965        -1.542544        -0.247975
 C         2.627066        -0.423181        -0.641351
 C         2.707638        -0.339677        -2.158374
 C         2.998552        -1.604675        -2.921709
 O         1.850122        -1.954881        -3.632064
 C         0.704822        -1.513518        -2.874950
 C         1.178859        -0.149230        -2.188162
 H         0.734651         0.180478         1.392171
 H         0.351279         1.537824         0.320148
 H        -0.670404         0.126659         0.449363
 H         3.479558        -0.188299         0.109709
 H         3.275071         0.520793        -2.591402
 H         3.765758        -1.439480        -3.719802
 H         3.363677        -2.483777        -2.262450
 H         0.030709        -1.370848        -3.763242
 H         0.253750        -2.330434        -2.209123
 H         0.724617         0.785531        -2.448916
