19
Iteration:  2238charge 0 multiplicity 1
 C         0.184956         0.208662         0.293077
 C         1.277384        -0.195999        -0.643925
 O         2.256394        -1.206595        -0.214749
 C         2.736706         0.053577        -0.861080
 C         2.489867        -0.227848        -2.377263
 C         2.916332        -1.438148        -3.139553
 O         1.832790        -2.376675        -3.138149
 C         0.616903        -1.737646        -2.668414
 C         0.982830        -0.289698        -2.163304
 H        -0.520106         0.932924        -0.267329
 H        -0.362345        -0.688004         0.576157
 H         0.507324         0.916829         1.097417
 H         3.399627         0.671201        -0.342096
 H         2.746980         0.667381        -3.005118
 H         3.211497        -1.381067        -4.248447
 H         3.787940        -1.915730        -2.643595
 H        -0.023196        -1.600679        -3.601497
 H        -0.027655        -2.391085        -1.901742
 H         0.351651         0.514337        -2.512682
