19
Iteration:  3251charge 0 multiplicity 1
 C         0.349828         0.400445         0.435518
 C         1.217113        -0.209891        -0.603372
 O         1.960679        -1.407367        -0.345844
 C         2.704000        -0.105126        -0.809915
 C         2.506183        -0.158992        -2.381584
 C         2.939734        -1.412377        -3.147101
 O         1.899011        -2.356318        -3.070182
 C         0.710534        -1.633893        -2.843083
 C         1.007130        -0.330297        -2.175130
 H         0.340337        -0.153554         1.413666
 H         0.426372         1.486762         0.637098
 H        -0.770633         0.359284         0.055700
 H         3.448823         0.144779        -0.166812
 H         2.819296         0.738234        -2.843163
 H         3.243323        -1.064202        -4.187146
 H         3.802347        -1.837654        -2.606205
 H         0.330512        -1.405992        -3.776829
 H         0.014172        -2.173985        -2.247893
 H         0.324749         0.387442        -2.551826
