19
Iteration:  4030charge 0 multiplicity 1
 C         0.386464         0.613332         0.267419
 C         1.228820        -0.287953        -0.535721
 O         1.723482        -1.547801        -0.056440
 C         2.675922        -0.472266        -0.582977
 C         2.680403        -0.346546        -2.187137
 C         2.962452        -1.497209        -3.059853
 O         1.830357        -1.861907        -3.766370
 C         0.672909        -1.585092        -2.857573
 C         1.131858        -0.318146        -2.108589
 H         0.210681         0.109739         1.099790
 H         0.716673         1.655045         0.480979
 H        -0.553351         0.830751        -0.330710
 H         3.332307        -0.267114         0.178052
 H         3.071767         0.579980        -2.489682
 H         3.732754        -1.345444        -3.860145
 H         3.353540        -2.300344        -2.354875
 H        -0.251793        -1.441417        -3.433449
 H         0.635704        -2.358063        -2.120020
 H         0.959754         0.686951        -2.470519
