19
Iteration:  1837charge 0 multiplicity 1
 C         0.277384         0.300068         0.391175
 C         1.293276        -0.246880        -0.607853
 O         2.216285        -1.186898        -0.041340
 C         2.724740        -0.017421        -0.953019
 C         2.450814        -0.140460        -2.452276
 C         2.969015        -1.439758        -3.131558
 O         1.844229        -2.428256        -3.088999
 C         0.588545        -1.673369        -2.956377
 C         0.930021        -0.417549        -2.130663
 H        -0.355651         1.020204        -0.021583
 H        -0.369906        -0.619508         0.777926
 H         0.799519         0.822000         1.369247
 H         3.333245         0.812114        -0.300714
 H         2.735945         0.719338        -3.144329
 H         2.963422        -1.384612        -4.182068
 H         3.844799        -1.951747        -2.670147
 H         0.245489        -1.204509        -3.900259
 H        -0.206189        -2.295437        -2.657366
 H         0.192762         0.412904        -2.314586
