19
Iteration:  3470charge 0 multiplicity 1
 C         0.202028         0.451174         0.269736
 C         1.258977        -0.189494        -0.578049
 O         2.093248        -1.278739        -0.066243
 C         2.796015        -0.256705        -0.726198
 C         2.583563        -0.318349        -2.277738
 C         2.904415        -1.623339        -3.007583
 O         1.722057        -1.871862        -3.673910
 C         0.747195        -1.791240        -2.733069
 C         1.019454        -0.382308        -2.117347
 H        -0.604407         0.912669        -0.338086
 H        -0.378407        -0.425719         0.677619
 H         0.564783         1.321293         0.797594
 H         3.556752         0.272519        -0.051111
 H         2.946630         0.616842        -2.712215
 H         3.724678        -1.631050        -3.732812
 H         3.089834        -2.413072        -2.247341
 H        -0.349917        -1.878199        -3.204435
 H         0.687815        -2.601535        -1.932870
 H         0.527047         0.441830        -2.608049
