19
Iteration:  3584charge 0 multiplicity 1
 C         0.259508         0.293125         0.302719
 C         1.267083        -0.122100        -0.690943
 O         1.986215        -1.404435        -0.273738
 C         2.716514        -0.268259        -0.702749
 C         2.622674        -0.281848        -2.252165
 C         2.967732        -1.531827        -2.994950
 O         1.760848        -2.136699        -3.372537
 C         0.635012        -1.517843        -2.770968
 C         1.062150        -0.227299        -2.206375
 H        -0.097675        -0.391184         0.935574
 H         0.742106         0.937100         0.977502
 H        -0.528169         0.833323        -0.275814
 H         3.536210         0.069814         0.011775
 H         3.257968         0.565457        -2.598409
 H         3.525705        -1.336445        -3.913184
 H         3.523877        -2.191514        -2.413490
 H        -0.190951        -1.543221        -3.449674
 H         0.296576        -2.245797        -1.970519
 H         0.555675         0.704726        -2.415595
