19
Iteration:  2516charge 0 multiplicity 1
 C         0.239775         0.062885         0.369410
 C         1.249398        -0.158674        -0.650032
 O         2.264076        -1.123816        -0.283217
 C         2.743752         0.024418        -0.873026
 C         2.494374        -0.135641        -2.481819
 C         2.889701        -1.510850        -3.112071
 O         1.848968        -2.408719        -2.874667
 C         0.592942        -1.626064        -2.858546
 C         0.951437        -0.310153        -2.163596
 H        -0.378629         0.979492         0.189432
 H        -0.570114        -0.707873         0.273835
 H         0.663778         0.182699         1.354430
 H         3.424828         0.769386        -0.147548
 H         2.657461         0.748592        -3.103501
 H         2.950436        -1.465013        -4.203493
 H         3.839135        -1.936955        -2.740105
 H         0.315973        -1.492446        -3.903818
 H        -0.169575        -2.456490        -2.492889
 H         0.479219         0.620865        -2.677749
