19
Iteration:  4399
 C         0.161076         0.378031         0.378609
 C         1.233922        -0.170898        -0.637577
 O         1.827784        -1.459532        -0.246987
 C         2.703141        -0.426462        -0.607525
 C         2.748205        -0.409688        -2.165129
 C         3.021341        -1.692594        -2.861296
 O         1.787412        -1.968728        -3.634390
 C         0.632967        -1.320883        -2.930000
 C         1.228081        -0.173365        -2.182876
 H         0.370726         0.081529         1.374322
 H         0.055036         1.511920         0.299487
 H        -0.778236        -0.067905        -0.020569
 H         3.544677         0.052097         0.090386
 H         3.321320         0.480329        -2.484197
 H         3.749062        -1.874103        -3.684965
 H         3.055097        -2.549723        -2.103785
 H        -0.177916        -0.962497        -3.631592
 H         0.130234        -2.040584        -2.337274
 H         1.084417         0.883783        -2.571449
