19
Iteration:  1637
 C         0.283867         0.262175         0.473112
 C         1.272288        -0.161637        -0.641685
 O         2.223423        -1.067939        -0.158300
 C         2.666735         0.114301        -0.857734
 C         2.509958        -0.284976        -2.432219
 C         2.888236        -1.671595        -2.879478
 O         1.777210        -2.158300        -3.584455
 C         0.661596        -1.794403        -2.748424
 C         0.985730        -0.448043        -2.133935
 H        -0.590050         0.885488         0.015987
 H        -0.088540        -0.647047         0.834923
 H         0.742710         0.774621         1.238541
 H         3.114481         0.831016        -0.294851
 H         2.672724         0.662820        -3.139866
 H         3.741249        -1.831271        -3.448773
 H         3.138910        -2.325177        -2.032389
 H        -0.177856        -1.856469        -3.336196
 H         0.631643        -2.587529        -1.983460
 H         0.536209         0.407325        -2.567148
