19
Iteration:  1329charge 0 multiplicity 1
 C         0.324424         0.427373         0.431378
 C         1.227148        -0.208617        -0.589674
 O         2.110254        -1.158152        -0.119215
 C         2.658064         0.001199        -0.828235
 C         2.438375        -0.236562        -2.421581
 C         2.965938        -1.461879        -3.089198
 O         1.842370        -2.335243        -3.408958
 C         0.705266        -1.837641        -2.813685
 C         0.972332        -0.427510        -2.111346
 H        -0.336931         1.304034        -0.044886
 H        -0.237020        -0.343403         0.947371
 H         1.007081         0.720233         1.298410
 H         3.465926         0.480147        -0.246595
 H         2.791561         0.674432        -2.935706
 H         3.351893        -1.320281        -4.110214
 H         3.614986        -2.004391        -2.400753
 H        -0.097507        -1.560338        -3.535788
 H         0.363784        -2.588748        -2.109376
 H         0.284076         0.326462        -2.575024
