19
Iteration:   248charge 0 multiplicity 1
 C         0.200335         0.337506         0.462690
 C         1.251185        -0.192931        -0.555942
 O         2.215153        -1.148643        -0.107579
 C         2.702964        -0.092135        -0.903776
 C         2.554408        -0.278346        -2.387290
 C         2.979027        -1.479223        -3.297800
 O         1.885334        -2.377774        -3.039259
 C         0.555183        -1.648384        -2.947830
 C         0.916049        -0.391789        -2.167185
 H        -0.662490         0.476921        -0.118685
 H        -0.129585        -0.429031         1.345920
 H         0.447998         1.247277         0.925386
 H         3.354522         0.600597        -0.533520
 H         2.854918         0.691384        -2.806018
 H         3.042300        -1.172550        -4.345484
 H         3.982628        -2.024115        -2.982367
 H         0.157478        -1.280450        -3.957732
 H        -0.007298        -2.433661        -2.391837
 H         0.397929         0.555790        -2.435245
