19
Iteration:  4858charge 0 multiplicity 1
 C         0.257107         0.342455         0.364978
 C         1.162271        -0.192630        -0.674102
 O         1.729218        -1.530847        -0.429606
 C         2.631633        -0.533580        -0.615753
 C         2.775479        -0.258450        -2.173693
 C         3.075174        -1.576001        -2.934774
 O         1.748006        -2.160527        -3.292779
 C         0.634209        -1.252824        -2.930029
 C         1.295660        -0.037533        -2.243449
 H         0.338924        -0.311223         1.256534
 H         0.481126         1.392790         0.620862
 H        -0.766441         0.281151         0.007177
 H         3.402051        -0.262193         0.136055
 H         3.394966         0.678838        -2.311391
 H         3.783655        -1.509465        -3.846221
 H         3.582638        -2.229404        -2.223441
 H         0.154042        -1.040188        -3.842382
 H        -0.076657        -1.922269        -2.368563
 H         1.025203         0.951559        -2.626560
