19
Iteration:  2330charge 0 multiplicity 1
 C         0.458167         0.525778         0.433915
 C         1.037709        -0.279861        -0.708222
 O         2.035895        -1.360019        -0.332014
 C         2.571193        -0.216206        -0.907014
 C         2.424019        -0.112636        -2.422605
 C         2.887186        -1.243359        -3.279606
 O         2.077583        -2.397460        -2.888401
 C         0.786937        -1.859529        -2.659344
 C         0.907615        -0.330987        -2.226318
 H         0.548774         1.614500         0.263230
 H        -0.656161         0.296049         0.559403
 H         1.035009         0.392251         1.335045
 H         3.364136         0.348548        -0.416949
 H         2.673006         0.905667        -2.696743
 H         2.729310        -0.837784        -4.352318
 H         3.942877        -1.537332        -3.185586
 H         0.068037        -2.049666        -3.572181
 H         0.350893        -2.436302        -1.849162
 H         0.204961         0.481101        -2.549347
