19
Iteration:  2182
 C         0.354140         0.113452         0.458480
 C         1.178289        -0.248126        -0.756932
 O         2.323526        -1.140232        -0.360392
 C         2.613683         0.161531        -0.903821
 C         2.569027        -0.129785        -2.392942
 C         2.977953        -1.554947        -2.852167
 O         1.747974        -2.380774        -3.075339
 C         0.565627        -1.658295        -2.779171
 C         0.959927        -0.321394        -2.334636
 H        -0.222219         1.055934         0.388555
 H        -0.594511        -0.564579         0.251345
 H         0.740453        -0.216772         1.391045
 H         3.272248         0.832810        -0.275683
 H         2.938121         0.689321        -3.061340
 H         3.539467        -1.593130        -3.855389
 H         3.498077        -1.973094        -1.963040
 H        -0.089797        -1.591733        -3.726569
 H        -0.126693        -2.265449        -2.010830
 H         0.234427         0.489149        -2.663515
