19
Iteration:  3894
 C         0.197877         0.209793         0.268794
 C         1.279113        -0.179051        -0.636712
 O         2.040571        -1.332058        -0.079963
 C         2.756157        -0.285080        -0.690390
 C         2.717415        -0.352791        -2.238939
 C         2.902996        -1.750615        -2.899917
 O         1.722476        -1.953358        -3.587454
 C         0.534705        -1.389916        -2.927369
 C         1.149253        -0.180994        -2.152544
 H        -0.838776        -0.006198        -0.389489
 H         0.026233        -0.379807         1.203807
 H         0.201995         1.237411         0.574645
 H         3.488159         0.248318        -0.138095
 H         3.456526         0.379309        -2.625263
 H         3.742742        -1.848453        -3.633378
 H         3.130173        -2.588769        -2.008755
 H        -0.041860        -1.234557        -3.800970
 H         0.286860        -2.164157        -2.216997
 H         0.834020         0.948403        -2.198801
