19
Iteration:  2878
 C         0.246399         0.300109         0.354881
 C         1.252959        -0.140372        -0.647567
 O         2.163081        -1.251910        -0.341619
 C         2.702792        -0.087117        -0.893678
 C         2.460396        -0.174009        -2.392553
 C         2.995787        -1.438725        -3.002552
 O         1.852794        -2.319255        -3.216774
 C         0.646299        -1.765598        -2.653326
 C         0.924084        -0.320628        -2.163698
 H        -0.247508         1.221464        -0.074616
 H        -0.281933        -0.568978         0.796013
 H         0.687862         0.760882         1.208975
 H         3.573888         0.365281        -0.371123
 H         2.644478         0.751586        -2.903802
 H         3.405661        -1.204144        -4.002715
 H         3.774569        -1.925764        -2.420276
 H        -0.136539        -1.898529        -3.490106
 H         0.314071        -2.368561        -1.774135
 H         0.217943         0.391678        -2.485277
