19
Iteration:   653
 C         0.223005         0.269621         0.339972
 C         1.241674        -0.153253        -0.660931
 O         2.154757        -1.196407        -0.246528
 C         2.754250        -0.050369        -0.851629
 C         2.553382        -0.158341        -2.418344
 C         2.901710        -1.434448        -3.235946
 O         1.867299        -2.350980        -3.026269
 C         0.626343        -1.731845        -2.651387
 C         0.978529        -0.360400        -2.217377
 H        -0.316688         1.257236         0.226903
 H        -0.522681        -0.567740         0.192989
 H         0.533380         0.011227         1.423524
 H         3.488337         0.556504        -0.257712
 H         2.774325         0.764807        -3.132254
 H         3.171124        -1.302003        -4.368344
 H         3.785747        -1.943628        -2.790165
 H        -0.222076        -1.833604        -3.368537
 H         0.314344        -2.270431        -1.696538
 H         0.250694         0.388074        -2.739461
