19
Iteration:  4095
 C         0.268452         0.420360         0.380625
 C         1.253588        -0.132890        -0.634226
 O         1.779488        -1.487852        -0.107694
 C         2.678723        -0.430541        -0.556645
 C         2.754912        -0.390801        -2.145716
 C         2.990297        -1.698109        -2.953898
 O         1.793829        -1.871872        -3.780182
 C         0.641316        -1.409445        -2.935670
 C         1.159337        -0.171431        -2.162561
 H         0.764568         0.694687         1.223965
 H        -0.407711         1.277502         0.041929
 H        -0.483750        -0.431327         0.606357
 H         3.530809        -0.281865         0.046860
 H         3.280866         0.433908        -2.509907
 H         3.928074        -1.721014        -3.607555
 H         3.016753        -2.651352        -2.280042
 H        -0.187728        -1.582701        -3.600866
 H         0.442110        -2.114211        -2.181720
 H         0.921968         0.767540        -2.678150
