19
Iteration:  4270
 C         0.344641         0.495797         0.369381
 C         1.173729        -0.174922        -0.585610
 O         1.706737        -1.552957        -0.278892
 C         2.622560        -0.411913        -0.641729
 C         2.730686        -0.320433        -2.159722
 C         3.013038        -1.617104        -2.935988
 O         1.846841        -1.959892        -3.617281
 C         0.699126        -1.518609        -2.874208
 C         1.168105        -0.152481        -2.187255
 H         0.673134         0.183979         1.332871
 H         0.290209         1.597267         0.361121
 H        -0.759171         0.150459         0.411920
 H         3.480937        -0.190454         0.111515
 H         3.279051         0.517820        -2.539804
 H         3.760916        -1.548130        -3.746553
 H         3.267757        -2.459227        -2.331924
 H         0.097112        -1.301666        -3.709134
 H         0.230375        -2.305369        -2.117302
 H         0.736272         0.828283        -2.496237
