19
Iteration:  2934
 C         0.331183         0.536565         0.440485
 C         1.151991        -0.238220        -0.617408
 O         2.131708        -1.210948        -0.183645
 C         2.536921        -0.040437        -0.840057
 C         2.531434        -0.223547        -2.327650
 C         2.986361        -1.454727        -3.123201
 O         1.843268        -2.221985        -3.528463
 C         0.741808        -1.941408        -2.578687
 C         0.980270        -0.452719        -2.187036
 H         0.475404         1.623370         0.524354
 H        -0.815629         0.440939         0.330790
 H         0.677400         0.108595         1.426077
 H         3.248796         0.681333        -0.200105
 H         2.655335         0.760984        -2.783420
 H         3.477668        -1.233162        -4.071497
 H         3.630865        -2.125816        -2.539140
 H        -0.100022        -2.200960        -3.274995
 H         0.709231        -2.655838        -1.716901
 H         0.270270         0.173292        -2.737672
