19
Iteration:   832
 C         0.212762         0.106406         0.315256
 C         1.295447        -0.210241        -0.683109
 O         2.210097        -1.156765        -0.283727
 C         2.799584        -0.002203        -0.942437
 C         2.466182        -0.088515        -2.495767
 C         2.851118        -1.473568        -3.125791
 O         1.825146        -2.373064        -2.882685
 C         0.630632        -1.688245        -2.684897
 C         1.003309        -0.295545        -2.179801
 H        -0.210220         1.020565         0.197773
 H        -0.621141        -0.629410         0.272195
 H         0.631958         0.030811         1.227808
 H         3.490856         0.606273        -0.267659
 H         2.671681         0.771032        -3.104768
 H         3.038073        -1.419958        -4.168117
 H         3.794243        -1.925498        -2.787362
 H         0.227878        -1.546214        -3.736071
 H        -0.157448        -2.251214        -2.180709
 H         0.417940         0.517081        -2.448978
