19
Iteration:  1572
 C         0.258504         0.365550         0.325314
 C         1.233147        -0.250931        -0.657643
 O         2.110256        -1.312228        -0.344667
 C         2.726911        -0.058469        -0.884378
 C         2.540650        -0.073227        -2.364574
 C         2.928456        -1.358166        -3.201058
 O         1.881424        -2.410842        -3.076666
 C         0.634095        -1.757395        -2.627757
 C         0.967824        -0.367978        -2.116878
 H         0.118212         1.469304         0.083723
 H        -0.703740        -0.094370         0.186050
 H         0.546857         0.381284         1.318031
 H         3.448642         0.391616        -0.341664
 H         2.599958         0.921669        -2.940704
 H         3.241936        -1.138026        -4.182412
 H         3.823917        -1.828173        -2.738358
 H        -0.086660        -1.845377        -3.411192
 H         0.227021        -2.292808        -1.680342
 H         0.395084         0.472883        -2.454808
