19
Iteration:  1655charge 0 multiplicity 1
 C         0.298612         0.268332         0.430191
 C         1.161755        -0.223105        -0.667112
 O         2.344117        -1.054653        -0.119974
 C         2.615255         0.081043        -0.886117
 C         2.538715        -0.256616        -2.347904
 C         2.906597        -1.699456        -2.742405
 O         1.752265        -2.027542        -3.670887
 C         0.654655        -1.875914        -2.725600
 C         0.943401        -0.461563        -2.216001
 H        -0.545563         0.931641        -0.120824
 H        -0.170883        -0.445202         1.145673
 H         0.944195         0.908331         1.088523
 H         3.521651         0.705442        -0.644892
 H         2.919074         0.397299        -3.138019
 H         3.855818        -1.678938        -3.411318
 H         3.002274        -2.578578        -2.003499
 H        -0.315552        -1.884958        -3.314627
 H         0.533252        -2.527588        -1.848373
 H         0.237861         0.381755        -2.481761
