19
Iteration:  2135charge 0 multiplicity 1
 C         0.236373         0.253055         0.421496
 C         1.239883        -0.173037        -0.567674
 O         2.269338        -1.172462        -0.237131
 C         2.685435         0.018574        -0.948950
 C         2.460940        -0.147819        -2.435241
 C         2.962682        -1.472388        -3.060961
 O         1.832527        -2.422048        -3.049822
 C         0.636673        -1.693823        -2.923553
 C         0.930326        -0.423680        -2.111320
 H        -0.000256         1.210561         0.140643
 H        -0.813938        -0.300573         0.459310
 H         0.740854         0.226369         1.377228
 H         3.524574         0.732105        -0.485033
 H         2.726230         0.750872        -2.962238
 H         3.236082        -1.317012        -4.082374
 H         3.702299        -2.040925        -2.486989
 H         0.286153        -1.248400        -3.903982
 H        -0.199568        -2.413838        -2.641560
 H         0.295569         0.448562        -2.527321
