19
Iteration:  3721
 C         0.311662         0.438221         0.398875
 C         1.218000        -0.158475        -0.617643
 O         1.899843        -1.393669        -0.086442
 C         2.691097        -0.262175        -0.660525
 C         2.677331        -0.375777        -2.216945
 C         2.990077        -1.606944        -3.036583
 O         1.720374        -1.973764        -3.768255
 C         0.695263        -1.633388        -2.806830
 C         1.110937        -0.296101        -2.111243
 H         0.871320         0.921809         1.258195
 H        -0.215716         1.269348        -0.115741
 H        -0.436565        -0.225179         0.698739
 H         3.319558         0.168899         0.007360
 H         2.971433         0.556985        -2.680535
 H         3.786049        -1.445509        -3.785088
 H         3.290635        -2.363384        -2.300309
 H        -0.293159        -1.614169        -3.316792
 H         0.562428        -2.504117        -2.060799
 H         0.828201         0.723390        -2.660771
