19
Iteration:  4751
 C         0.338519         0.398680         0.398941
 C         1.194000        -0.236921        -0.635947
 O         1.719603        -1.590666        -0.330521
 C         2.594807        -0.540958        -0.643492
 C         2.786102        -0.301148        -2.142480
 C         3.058298        -1.515174        -2.967891
 O         1.768142        -2.198574        -3.214964
 C         0.701599        -1.189429        -3.174661
 C         1.139144        -0.068765        -2.220602
 H         0.865504         0.831967         1.371634
 H        -0.157206         1.231404        -0.032024
 H        -0.506506        -0.331653         0.760415
 H         3.413164        -0.232674         0.092496
 H         3.386738         0.512157        -2.338812
 H         3.624542        -1.223131        -3.847087
 H         3.553288        -2.242321        -2.310385
 H         0.488432        -0.838696        -4.248155
 H        -0.158583        -1.761378        -2.823062
 H         0.870305         0.983787        -2.494266
