19
Iteration:  4675
 C         0.181760         0.291429         0.217631
 C         1.236941        -0.257462        -0.595678
 O         1.791092        -1.466360        -0.195963
 C         2.714530        -0.463899        -0.664201
 C         2.803962        -0.348565        -2.195661
 C         3.020689        -1.654398        -3.022951
 O         1.714869        -2.129928        -3.369335
 C         0.676446        -1.199287        -2.964075
 C         1.234282        -0.030985        -2.123201
 H         0.188373         0.151772         1.381322
 H         0.017090         1.335706         0.073613
 H        -0.827129        -0.217489        -0.073068
 H         3.305308         0.050707         0.104161
 H         3.554903         0.333909        -2.334348
 H         3.549996        -1.162589        -3.874070
 H         3.623951        -2.460558        -2.494834
 H         0.275707        -0.863220        -3.851451
 H        -0.063410        -1.743427        -2.504019
 H         0.796755         0.937708        -2.434805
