19
Iteration:  2680charge 0 multiplicity 1
 C         0.245879         0.395209         0.294917
 C         1.182638        -0.201627        -0.631575
 O         2.129921        -1.252250        -0.182853
 C         2.705308        -0.175796        -0.806818
 C         2.493671        -0.140779        -2.391786
 C         2.930083        -1.374593        -3.312062
 O         1.925723        -2.364075        -3.100383
 C         0.719636        -1.765314        -2.673864
 C         0.983344        -0.364149        -2.109196
 H        -0.339178         1.314350        -0.204204
 H        -0.598146        -0.291709         0.313251
 H         0.726275         0.656256         1.209102
 H         3.514088         0.354992        -0.221104
 H         2.493895         0.843848        -2.872243
 H         2.788161        -1.088349        -4.402696
 H         3.916679        -1.798720        -3.117898
 H         0.040953        -1.620649        -3.528885
 H         0.168322        -2.460685        -1.917026
 H         0.230774         0.340878        -2.379785
