19
Iteration:  1599
 C         0.253494         0.277642         0.359864
 C         1.215820        -0.182127        -0.665222
 O         2.218730        -1.182693        -0.202303
 C         2.712199        -0.065127        -0.870635
 C         2.519979        -0.220030        -2.405874
 C         2.947856        -1.485841        -3.060805
 O         1.801464        -2.280896        -3.275632
 C         0.637904        -1.740013        -2.672195
 C         0.992136        -0.383719        -2.166636
 H        -0.269308         1.160280         0.004307
 H        -0.600240        -0.507250         0.399062
 H         0.611773         0.565337         1.456582
 H         3.326412         0.808527        -0.368300
 H         2.674625         0.585443        -3.066771
 H         3.342564        -1.116681        -4.103718
 H         3.664134        -2.083437        -2.414420
 H        -0.247597        -1.842709        -3.429018
 H         0.373068        -2.239933        -1.741274
 H         0.404735         0.547712        -2.541501
