19
Iteration:   903charge 0 multiplicity 1
 C         0.347067         0.113077         0.514784
 C         1.227872        -0.247739        -0.660320
 O         2.375183        -1.126550        -0.309019
 C         2.693687         0.076212        -0.951269
 C         2.471745        -0.152080        -2.526880
 C         2.860777        -1.574338        -2.841189
 O         1.753829        -2.381281        -2.958045
 C         0.613517        -1.617583        -3.041648
 C         0.898209        -0.323115        -2.178973
 H        -0.694345         0.520677         0.076486
 H        -0.008563        -0.801320         0.951033
 H         0.787068         0.835147         1.372067
 H         3.223737         0.822733        -0.534593
 H         2.791799         0.655075        -3.247708
 H         3.509483        -1.585737        -3.757419
 H         3.657535        -1.919837        -2.238109
 H         0.194906        -1.158757        -3.959079
 H        -0.190634        -2.300654        -2.827444
 H         0.266065         0.634621        -2.556720
