19
Iteration:   991charge 0 multiplicity 1
 C         0.258895         0.436157         0.336637
 C         1.214204        -0.177466        -0.676878
 O         2.133579        -1.277517        -0.270422
 C         2.722176         0.011081        -0.852777
 C         2.444466        -0.166453        -2.382911
 C         2.978738        -1.448257        -3.154017
 O         1.764998        -2.213931        -3.354523
 C         0.800830        -1.902457        -2.437201
 C         0.959351        -0.469454        -2.118602
 H         0.060979         1.562540         0.226780
 H        -0.669696         0.019499         0.196956
 H         0.699166         0.327054         1.395762
 H         3.527378         0.400072        -0.415127
 H         2.633914         0.772710        -2.957892
 H         3.309988        -1.421416        -4.228457
 H         3.756489        -2.018164        -2.648759
 H        -0.238476        -2.098636        -3.066949
 H         0.635287        -2.490594        -1.530133
 H         0.312670         0.284987        -2.776302
