19
Iteration:  2697charge 0 multiplicity 1
 C         0.237512         0.288797         0.323297
 C         1.278912        -0.201535        -0.649887
 O         2.092439        -1.250706        -0.179471
 C         2.694605        -0.040158        -0.862972
 C         2.593990        -0.203807        -2.395328
 C         2.877158        -1.338480        -3.286070
 O         1.920239        -2.361401        -3.009506
 C         0.604484        -1.759636        -2.680071
 C         0.960568        -0.363623        -2.224124
 H        -0.149746         1.259837        -0.003390
 H        -0.632606        -0.394348         0.342157
 H         0.740918         0.069905         1.375217
 H         3.486132         0.632031        -0.377089
 H         2.983481         0.817547        -2.794086
 H         2.962168        -0.871240        -4.272827
 H         3.851534        -1.831352        -2.955379
 H        -0.114989        -1.772385        -3.555757
 H         0.194059        -2.330240        -1.893958
 H         0.461712         0.500925        -2.757472
