19
Iteration:   423charge 0 multiplicity 1
 C         0.372726         0.620854         0.406634
 C         1.114515        -0.245194        -0.545865
 O         2.132917        -1.118949        -0.125713
 C         2.583421         0.069693        -0.821812
 C         2.457285        -0.292825        -2.328006
 C         2.965622        -1.550665        -3.115034
 O         1.823276        -2.112668        -3.685375
 C         0.827013        -2.039826        -2.580807
 C         0.963477        -0.602134        -2.113819
 H         0.395456         1.602759         0.116740
 H        -0.805245         0.181079         0.440287
 H         0.759336         0.541458         1.414872
 H         3.235638         0.656942        -0.288751
 H         2.512435         0.631716        -2.940712
 H         3.554263        -1.181268        -3.886938
 H         3.512850        -2.378790        -2.512424
 H        -0.194803        -2.205575        -2.934703
 H         0.991586        -2.826883        -1.804834
 H         0.278892         0.044076        -2.681732
