19
Iteration:  4687
 C         0.177045         0.288995         0.300875
 C         1.215986        -0.208987        -0.654535
 O         1.754445        -1.487593        -0.280941
 C         2.673151        -0.400971        -0.594877
 C         2.847468        -0.359724        -2.141698
 C         2.997586        -1.588627        -3.010575
 O         1.716285        -2.114580        -3.326632
 C         0.671057        -1.223900        -3.007248
 C         1.276940        -0.099680        -2.177651
 H         0.648731         0.214972         1.370071
 H        -0.068337         1.260590         0.003685
 H        -0.734069        -0.390747         0.141689
 H         3.608509        -0.269408         0.091444
 H         3.408246         0.469263        -2.550693
 H         3.552009        -1.655224        -3.983894
 H         3.568565        -2.381520        -2.420784
 H         0.200701        -0.810216        -3.846059
 H        -0.014846        -1.740062        -2.417700
 H         0.922998         0.920894        -2.468113
