19
Iteration:  1494charge 0 multiplicity 1
 C         0.364097         0.522916         0.438147
 C         1.174872        -0.243138        -0.640467
 O         2.047517        -1.345111        -0.325295
 C         2.645117        -0.192742        -0.868259
 C         2.416501        -0.107646        -2.388339
 C         2.974331        -1.296136        -3.231088
 O         1.984915        -2.416804        -2.992477
 C         0.684818        -1.789880        -2.758991
 C         0.925209        -0.400947        -2.164488
 H         0.016191         1.566293        -0.052347
 H        -0.497436         0.038653         0.790648
 H         0.922887         0.709525         1.299088
 H         3.379158         0.309396        -0.155979
 H         2.826695         0.887694        -2.943651
 H         2.978666        -1.039060        -4.332847
 H         4.051127        -1.594799        -2.987458
 H         0.212759        -1.762323        -3.796975
 H        -0.035693        -2.447436        -2.087852
 H         0.356929         0.469572        -2.507285
