19
Iteration:  4380
 C         0.088618         0.454059         0.320869
 C         1.252161        -0.186637        -0.492571
 O         1.843964        -1.456769        -0.204943
 C         2.673918        -0.346655        -0.565202
 C         2.805315        -0.429059        -2.107368
 C         2.961352        -1.811152        -2.989303
 O         1.782284        -1.868459        -3.741727
 C         0.675208        -1.392095        -2.913134
 C         1.216248        -0.184510        -2.123465
 H         0.498612         0.511567         1.372282
 H        -0.034989         1.442514        -0.093363
 H        -0.891595        -0.156052         0.177341
 H         3.589987        -0.215467         0.124964
 H         3.443530         0.215552        -2.663643
 H         3.751715        -1.577379        -3.737418
 H         3.186770        -2.731283        -2.442383
 H        -0.018431        -1.212470        -3.677534
 H         0.429154        -2.251885        -2.231424
 H         0.890490         0.809834        -2.478118
