19
Iteration:  2597
 C         0.306596         0.485670         0.510484
 C         1.147601        -0.121125        -0.643351
 O         2.019225        -1.270623        -0.352515
 C         2.647148        -0.104177        -0.831205
 C         2.450649        -0.214543        -2.404424
 C         3.003506        -1.355381        -3.303589
 O         2.005710        -2.357681        -3.082512
 C         0.741480        -1.865252        -2.696910
 C         0.896658        -0.424344        -2.149804
 H         0.064151         1.485929         0.281063
 H        -0.595028        -0.186011         0.854533
 H         0.985521         0.412842         1.441738
 H         3.423418         0.334400        -0.380855
 H         2.643773         0.774518        -2.830327
 H         3.158963        -1.118278        -4.341253
 H         3.968818        -1.612682        -2.864619
 H         0.082918        -1.764935        -3.551849
 H         0.338538        -2.534206        -1.991873
 H         0.155614         0.316343        -2.658267
