19
Iteration:  4951
 C         0.133330         0.425900         0.257478
 C         1.218544        -0.294407        -0.578430
 O         1.825595        -1.542329        -0.129120
 C         2.709132        -0.476257        -0.589037
 C         2.790207        -0.333239        -2.156301
 C         2.983350        -1.604380        -3.053334
 O         1.714768        -2.116681        -3.377639
 C         0.686271        -1.167092        -3.109323
 C         1.286222        -0.155901        -2.116122
 H         0.375954         0.941512         1.159949
 H        -0.533034         1.167184        -0.309951
 H        -0.524669        -0.392451         0.576614
 H         3.427221        -0.246937         0.169748
 H         3.513094         0.369632        -2.616835
 H         3.610923        -1.359870        -4.007849
 H         3.599870        -2.493244        -2.591765
 H         0.514821        -0.543884        -4.094069
 H        -0.262384        -1.643759        -2.954464
 H         0.887155         0.871309        -2.304636
