19
Iteration:  2257charge 0 multiplicity 1
 C         0.263634         0.359809         0.285630
 C         1.178400        -0.276603        -0.608609
 O         2.214378        -1.205416        -0.177144
 C         2.625454        -0.056195        -0.882632
 C         2.559750        -0.099404        -2.393954
 C         2.943632        -1.408599        -3.211478
 O         1.840275        -2.359475        -3.103753
 C         0.614201        -1.765970        -2.755209
 C         1.034537        -0.454653        -2.123259
 H        -0.391968         1.027419        -0.194553
 H        -0.391040        -0.426866         0.881019
 H         0.854907         0.973397         0.915656
 H         3.352413         0.651803        -0.103971
 H         2.752217         0.856073        -2.911279
 H         2.974914        -1.081615        -4.224853
 H         3.872274        -1.915333        -2.945122
 H        -0.126318        -1.836254        -3.507478
 H         0.231158        -2.331358        -1.920878
 H         0.316972         0.405039        -2.442604
