19
Iteration:  3222charge 0 multiplicity 1
 C         0.406125         0.315079         0.526758
 C         1.100346        -0.245157        -0.752937
 O         1.990949        -1.331338        -0.357402
 C         2.630412        -0.195145        -0.839983
 C         2.553906        -0.212605        -2.345468
 C         2.987790        -1.388027        -3.192106
 O         1.932651        -2.318303        -2.881041
 C         0.627993        -1.591663        -2.875930
 C         0.986953        -0.312648        -2.291744
 H         0.481104        -0.321602         1.333805
 H         0.811495         1.274980         0.931779
 H        -0.611154         0.648416         0.190328
 H         3.386033         0.374499        -0.152470
 H         2.930443         0.839569        -2.615959
 H         3.253717        -1.094908        -4.181886
 H         3.956346        -1.798317        -2.724233
 H         0.247717        -1.593622        -4.027358
 H        -0.156532        -2.053849        -2.241010
 H         0.345804         0.541020        -2.665038
