19
Iteration:  1652
 C         0.294280         0.265413         0.404485
 C         1.155912        -0.218501        -0.650647
 O         2.328117        -1.059974        -0.123275
 C         2.619737         0.086404        -0.909890
 C         2.532909        -0.260880        -2.329824
 C         2.917159        -1.697276        -2.768178
 O         1.759584        -2.049425        -3.664051
 C         0.649374        -1.860403        -2.725820
 C         0.957898        -0.447811        -2.203445
 H        -0.454433         0.824614         0.027352
 H        -0.160462        -0.509644         1.144972
 H         0.990839         0.911360         1.133915
 H         3.564308         0.789944        -0.649199
 H         2.889035         0.384307        -3.032962
 H         3.846881        -1.688992        -3.421215
 H         2.905279        -2.435255        -1.950975
 H        -0.371608        -1.882468        -3.312121
 H         0.553817        -2.552060        -1.809999
 H         0.257611         0.391370        -2.576934
