19
Iteration:  1719charge 0 multiplicity 1
 C         0.281791         0.388375         0.366184
 C         1.213024        -0.176772        -0.638261
 O         2.216935        -1.192383        -0.070270
 C         2.613671        -0.006971        -0.883991
 C         2.525018        -0.233590        -2.333301
 C         3.009423        -1.499782        -3.147893
 O         1.781366        -2.244833        -3.468059
 C         0.648193        -1.833561        -2.638199
 C         0.969804        -0.437940        -2.142629
 H        -0.083751         1.268888         0.068663
 H        -0.626496        -0.297092         0.411449
 H         0.724659         0.607010         1.404037
 H         3.420178         0.671273        -0.398072
 H         2.716617         0.742901        -2.626147
 H         3.419256        -1.126342        -4.125882
 H         3.566899        -2.144672        -2.506677
 H        -0.220995        -2.022859        -3.376220
 H         0.561819        -2.626146        -1.833102
 H         0.369482         0.397940        -2.620049
