19
Iteration:   835
 C         0.235232         0.093256         0.317881
 C         1.274822        -0.211615        -0.694942
 O         2.232261        -1.148988        -0.286751
 C         2.774175         0.012095        -0.932194
 C         2.473701        -0.104806        -2.483008
 C         2.844525        -1.468387        -3.106135
 O         1.824941        -2.372954        -2.866497
 C         0.609438        -1.660562        -2.715183
 C         1.010491        -0.303435        -2.195253
 H        -0.307028         1.077322         0.138569
 H        -0.616211        -0.652363         0.340237
 H         0.691530        -0.015670         1.331474
 H         3.548418         0.550295        -0.267680
 H         2.664069         0.717556        -3.133482
 H         3.065449        -1.499096        -4.217655
 H         3.805631        -1.933396        -2.818326
 H         0.204268        -1.558422        -3.719131
 H        -0.084152        -2.347801        -2.238581
 H         0.400006         0.609066        -2.473851
