19
Iteration:  2374
 C         0.211320         0.364839         0.330589
 C         1.255025        -0.159358        -0.569212
 O         2.110185        -1.259391        -0.240811
 C         2.719536        -0.190710        -0.953556
 C         2.462641        -0.153077        -2.478498
 C         2.885889        -1.323904        -3.281945
 O         1.997195        -2.385504        -3.006351
 C         0.687331        -1.789915        -2.603821
 C         0.928719        -0.338440        -2.139570
 H         0.008993         1.450620         0.223616
 H        -0.824212        -0.189453         0.161445
 H         0.613067         0.244752         1.331926
 H         3.627930         0.258311        -0.451681
 H         2.846392         0.823221        -2.756742
 H         2.881088        -1.045710        -4.390339
 H         3.922572        -1.565277        -3.000332
 H        -0.049329        -1.754869        -3.533496
 H         0.150819        -2.415055        -1.878697
 H         0.255225         0.462409        -2.617774
