19
Iteration:  3654
 C         0.249528         0.210188         0.318687
 C         1.235889        -0.256089        -0.604041
 O         2.079558        -1.337426        -0.203929
 C         2.773875        -0.075067        -0.678856
 C         2.707222        -0.261220        -2.335943
 C         2.907515        -1.647145        -2.819633
 O         1.713310        -2.054987        -3.533456
 C         0.571389        -1.533856        -2.974053
 C         1.083334        -0.291358        -2.099531
 H         0.277873        -0.152024         1.405252
 H         0.675708         1.173787         0.631532
 H        -0.662671         0.373782        -0.063137
 H         3.512482         0.359421        -0.017700
 H         3.033387         0.515828        -3.000091
 H         3.706025        -1.887616        -3.498538
 H         2.963470        -2.307075        -1.951964
 H        -0.114788        -1.199153        -3.728823
 H        -0.061322        -2.182620        -2.365998
 H         0.586980         0.712508        -2.530649
