19
Iteration:  3274charge 0 multiplicity 1
 C         0.237939         0.380806         0.295653
 C         1.220665        -0.199065        -0.586594
 O         2.121412        -1.368799        -0.197734
 C         2.705562        -0.225664        -0.808249
 C         2.582323        -0.231102        -2.357241
 C         3.007773        -1.396179        -3.170065
 O         1.841703        -2.278799        -3.151571
 C         0.585476        -1.651545        -2.820548
 C         0.964630        -0.293457        -2.150286
 H         0.553682         0.212155         1.314672
 H         0.112758         1.509390         0.191243
 H        -0.923198         0.058734         0.113926
 H         3.479049         0.150900        -0.170527
 H         2.942707         0.732590        -2.709552
 H         3.226293        -0.968520        -4.203641
 H         3.925722        -1.855623        -2.686061
 H         0.082773        -1.504490        -3.709226
 H         0.071878        -2.307678        -2.156013
 H         0.416869         0.589945        -2.451445
