19
Iteration:  2494charge 0 multiplicity 1
 C         0.317202         0.062117         0.487496
 C         1.187553        -0.266572        -0.676085
 O         2.263734        -1.148385        -0.256065
 C         2.620958         0.099167        -1.011924
 C         2.493064        -0.146387        -2.463352
 C         2.999146        -1.502637        -2.968188
 O         1.763408        -2.389669        -2.914830
 C         0.628248        -1.612932        -2.915385
 C         0.973286        -0.293062        -2.296711
 H        -0.477724         0.861348         0.400717
 H        -0.314892        -0.865972         0.705133
 H         0.933881         0.519269         1.225841
 H         3.423274         0.800268        -0.366577
 H         2.965908         0.593739        -3.108202
 H         3.268485        -1.360457        -4.007116
 H         3.776474        -2.091065        -2.450246
 H         0.233571        -1.558765        -3.909902
 H        -0.233427        -2.143724        -2.267995
 H         0.308461         0.649430        -2.579143
