19
Iteration:   823charge 0 multiplicity 1
 C         0.181482         0.159866         0.307247
 C         1.314566        -0.153786        -0.635385
 O         2.195062        -1.227180        -0.286694
 C         2.778698        -0.021709        -0.961060
 C         2.500888        -0.095555        -2.510919
 C         2.913799        -1.437537        -3.201708
 O         1.837842        -2.429595        -2.905898
 C         0.629585        -1.701491        -2.673495
 C         0.966270        -0.303554        -2.111986
 H        -0.128232         1.190215         0.200736
 H        -0.627903        -0.604228         0.010123
 H         0.470535         0.083968         1.322369
 H         3.488514         0.765894        -0.410205
 H         2.804121         0.805228        -2.940186
 H         2.940723        -1.142215        -4.259294
 H         3.757951        -1.816944        -2.618033
 H         0.067868        -1.518776        -3.581879
 H         0.023581        -2.121255        -1.889030
 H         0.210929         0.377143        -2.525036
