19
Iteration:  4016charge 0 multiplicity 1
 C         0.415793         0.572435         0.347124
 C         1.211737        -0.264342        -0.589564
 O         1.653240        -1.510201        -0.043772
 C         2.678001        -0.456277        -0.647676
 C         2.685229        -0.293066        -2.181399
 C         3.104065        -1.554091        -3.051279
 O         1.773087        -1.887474        -3.723523
 C         0.702998        -1.575128        -2.889564
 C         1.109926        -0.286933        -2.140925
 H         0.062222         0.012098         1.333919
 H         1.110915         1.375998         0.689849
 H        -0.585943         0.764181        -0.079372
 H         3.500083        -0.079511         0.016718
 H         3.156085         0.700879        -2.426324
 H         3.910052        -1.398853        -3.863766
 H         3.312263        -2.538088        -2.417820
 H        -0.071856        -1.373191        -3.640401
 H         0.503215        -2.383827        -2.175248
 H         0.322183         0.444690        -2.560575
