19
Iteration:  4978charge 0 multiplicity 1
 C         0.170331         0.313272         0.281332
 C         1.186656        -0.234730        -0.658479
 O         1.791740        -1.495369        -0.280003
 C         2.698365        -0.434316        -0.562709
 C         2.814708        -0.387251        -2.064455
 C         3.040507        -1.586693        -3.014175
 O         1.675722        -2.202153        -3.276677
 C         0.655595        -1.136446        -3.093238
 C         1.318212        -0.061999        -2.218300
 H         0.549468         0.591431         1.320814
 H        -0.456761         1.160131        -0.006674
 H        -0.487940        -0.550294         0.532767
 H         3.441420        -0.252313         0.286750
 H         3.588499         0.296885        -2.453155
 H         3.408515        -1.170361        -3.932952
 H         3.673064        -2.391804        -2.769774
 H         0.333567        -0.695951        -4.114166
 H        -0.308245        -1.590495        -2.719347
 H         1.103220         0.963510        -2.504402
