19
Iteration:  2152
 C         0.327703         0.214524         0.452312
 C         1.252503        -0.255990        -0.641087
 O         2.268623        -1.165923        -0.293837
 C         2.644651         0.120574        -0.957531
 C         2.426512        -0.190344        -2.461938
 C         2.990803        -1.560706        -2.934734
 O         1.838858        -2.394783        -3.064207
 C         0.602500        -1.623623        -2.896637
 C         0.888855        -0.344177        -2.157139
 H        -0.148599         1.301811         0.338036
 H        -0.472624        -0.377123         0.204289
 H         0.536483        -0.106806         1.518610
 H         3.322027         0.633725        -0.454595
 H         2.602094         0.597723        -3.233407
 H         3.631076        -1.488483        -3.878759
 H         3.716934        -1.847128        -2.147972
 H         0.263862        -1.352171        -3.915270
 H        -0.064042        -2.295137        -2.374613
 H         0.245482         0.452161        -2.391093
