19
Iteration:  2809charge 0 multiplicity 1
 C         0.174667         0.144982         0.466710
 C         1.245198        -0.189352        -0.605192
 O         2.333041        -1.093529        -0.169706
 C         2.716832        -0.004606        -0.919274
 C         2.477321        -0.092740        -2.476817
 C         2.934734        -1.545451        -3.043313
 O         1.774394        -2.453266        -3.038150
 C         0.592460        -1.631643        -2.973787
 C         0.985021        -0.307163        -2.166835
 H        -0.655152         0.795944         0.134242
 H        -0.107421        -0.811597         0.796952
 H         0.542588         0.613017         1.373077
 H         3.488835         0.617102        -0.511691
 H         2.910010         0.677231        -3.158254
 H         3.255214        -1.486381        -4.104667
 H         3.732120        -2.173004        -2.539980
 H         0.304248        -1.323705        -4.087881
 H        -0.162721        -2.257735        -2.636000
 H         0.412614         0.482840        -2.533712
