19
Iteration:  3246
 C         0.323779         0.400615         0.451369
 C         1.228255        -0.205003        -0.598607
 O         1.980310        -1.422464        -0.340056
 C         2.632689        -0.121347        -0.815385
 C         2.515900        -0.147060        -2.394033
 C         2.927694        -1.409430        -3.121782
 O         1.888047        -2.367429        -3.054388
 C         0.754055        -1.655654        -2.849294
 C         1.001152        -0.279613        -2.215632
 H         0.540854        -0.186020         1.411211
 H         0.566424         1.429493         0.761202
 H        -0.618609         0.449224         0.053720
 H         3.506342         0.128236        -0.048556
 H         2.886926         0.792531        -2.929353
 H         3.164818        -1.153638        -4.144274
 H         3.879205        -1.746981        -2.690508
 H         0.240701        -1.487238        -3.951534
 H        -0.026948        -2.262555        -2.260236
 H         0.309713         0.545159        -2.594853
