19
Iteration:  4410charge 0 multiplicity 1
 C         0.254643         0.293015         0.273110
 C         1.219807        -0.188342        -0.632174
 O         1.786323        -1.466510        -0.236569
 C         2.684231        -0.371330        -0.639204
 C         2.802644        -0.311333        -2.131693
 C         2.926289        -1.698700        -2.834502
 O         1.772483        -2.000803        -3.589015
 C         0.606079        -1.324529        -2.955494
 C         1.237017        -0.136524        -2.186905
 H         0.593001        -0.127407         1.177494
 H         0.346781         1.415431         0.408119
 H        -0.832591         0.031775         0.213125
 H         3.599937        -0.316521         0.139800
 H         3.437265         0.471176        -2.573456
 H         3.905361        -1.640839        -3.400643
 H         3.157000        -2.425653        -1.971645
 H         0.042710        -1.051982        -3.879720
 H         0.158145        -2.000573        -2.273466
 H         0.818330         0.848496        -2.590552
