19
Iteration:  4848charge 0 multiplicity 1
 C         0.188901         0.366444         0.326485
 C         1.208443        -0.275819        -0.646734
 O         1.722127        -1.566238        -0.455307
 C         2.647779        -0.437081        -0.617873
 C         2.803969        -0.322462        -2.153683
 C         3.046091        -1.578026        -2.983440
 O         1.766240        -2.123878        -3.269325
 C         0.695300        -1.230975        -2.909637
 C         1.249428        -0.059617        -2.199969
 H         0.210077        -0.156306         1.346193
 H         0.552241         1.313654         0.536892
 H        -0.849611         0.480682        -0.019509
 H         3.323707        -0.269695         0.303280
 H         3.349639         0.459140        -2.645637
 H         3.537621        -1.526492        -4.060854
 H         3.706960        -2.198382        -2.330593
 H         0.147135        -0.972050        -3.835401
 H         0.023683        -1.729570        -2.132973
 H         1.041351         0.953882        -2.585453
