19
Iteration:   690
 C         0.233481         0.532604         0.334736
 C         1.254423        -0.172955        -0.614905
 O         2.110850        -1.327530        -0.202854
 C         2.722569        -0.107407        -0.813244
 C         2.492400        -0.195477        -2.417519
 C         2.897348        -1.331453        -3.307094
 O         1.923798        -2.343050        -3.188409
 C         0.699399        -1.849916        -2.615666
 C         0.934591        -0.426555        -2.138465
 H        -0.369907         1.219513        -0.210508
 H        -0.606724        -0.275880         0.858496
 H         0.736479         1.099422         1.112989
 H         3.430090         0.334174        -0.149316
 H         2.705254         0.760955        -2.732179
 H         3.086425        -0.957070        -4.402371
 H         3.847877        -1.775017        -2.905914
 H         0.028346        -2.109296        -3.390473
 H         0.451492        -2.387198        -1.734407
 H         0.279725         0.297484        -2.546897
