19
Iteration:  1562
 C         0.260763         0.406231         0.362561
 C         1.237480        -0.194109        -0.606053
 O         2.117476        -1.317970        -0.386344
 C         2.705338        -0.147421        -0.873135
 C         2.454822        -0.171804        -2.423216
 C         2.938747        -1.330863        -3.162504
 O         1.916513        -2.359036        -3.009307
 C         0.661718        -1.768485        -2.655814
 C         0.985929        -0.326348        -2.157804
 H         0.193465         1.479045         0.072729
 H        -0.743550        -0.036067         0.188911
 H         0.498177         0.247021         1.395905
 H         3.395764         0.344347        -0.327189
 H         2.773461         0.780393        -2.915074
 H         2.908679        -1.018224        -4.249294
 H         3.933347        -1.707788        -2.921735
 H        -0.091293        -1.814453        -3.474164
 H         0.315456        -2.498848        -1.827420
 H         0.289855         0.314891        -2.643206
