19
Iteration:  1983
 C         0.232165         0.459524         0.397001
 C         1.293462        -0.262369        -0.533347
 O         2.213803        -1.250051        -0.127620
 C         2.678278        -0.006975        -0.927947
 C         2.448134        -0.170293        -2.451091
 C         2.919015        -1.409565        -3.188750
 O         1.927549        -2.420471        -3.094111
 C         0.661542        -1.763913        -2.925144
 C         0.890453        -0.419052        -2.074253
 H         0.266384         1.594500         0.264756
 H        -0.793908        -0.061522         0.147968
 H         0.366081         0.155566         1.402869
 H         3.425218         0.642107        -0.544428
 H         2.811895         0.734966        -2.849811
 H         3.033453        -1.174024        -4.248881
 H         3.865919        -1.773778        -2.816091
 H         0.183968        -1.438920        -3.852016
 H        -0.002021        -2.526870        -2.421921
 H         0.062932         0.310160        -2.308604
