19
Iteration:  1858
 C         0.265726         0.204306         0.382014
 C         1.241991        -0.258707        -0.639757
 O         2.314903        -1.165999        -0.258681
 C         2.660833         0.024363        -0.881737
 C         2.466864        -0.201933        -2.379098
 C         2.888010        -1.469834        -3.129408
 O         1.801492        -2.395835        -2.924962
 C         0.625805        -1.641972        -2.945508
 C         0.976863        -0.343758        -2.163322
 H        -0.460399         0.733035        -0.163528
 H        -0.244862        -0.677351         0.789918
 H         0.678520         0.944831         1.163676
 H         3.593995         0.496994        -0.275570
 H         2.766212         0.752362        -2.979241
 H         3.085945        -1.227596        -4.189062
 H         3.682641        -2.023204        -2.568529
 H         0.401936        -1.274177        -3.942635
 H        -0.231424        -2.113042        -2.565586
 H         0.307234         0.494141        -2.465243
