19
Iteration:  2730
 C         0.238709         0.179707         0.395939
 C         1.179999        -0.129539        -0.649972
 O         2.157973        -1.276390        -0.405715
 C         2.677222         0.017906        -0.919212
 C         2.574856        -0.152657        -2.464963
 C         2.946926        -1.473541        -3.163088
 O         1.924502        -2.433080        -2.902158
 C         0.632479        -1.640423        -2.717807
 C         0.884252        -0.272154        -2.119392
 H         0.031754         1.211520         0.572980
 H        -0.652499        -0.368848         0.166376
 H         0.805098        -0.050434         1.403412
 H         3.447233         0.707393        -0.344844
 H         2.913556         0.756991        -3.089047
 H         3.307943        -1.362801        -4.233288
 H         3.809765        -1.911176        -2.531101
 H         0.265339        -1.361557        -3.792890
 H        -0.098074        -2.256268        -2.239182
 H         0.188610         0.500845        -2.546172
