19
Iteration:  1909charge 0 multiplicity 1
 C         0.271975         0.015636         0.392441
 C         1.299640        -0.053034        -0.741398
 O         2.156810        -1.248939        -0.408204
 C         2.735175        -0.005054        -0.978506
 C         2.540549        -0.122847        -2.470745
 C         2.969473        -1.499727        -2.955352
 O         1.840002        -2.356489        -2.810403
 C         0.578297        -1.632738        -2.785262
 C         0.894566        -0.217695        -2.212575
 H        -0.564731         0.865446         0.175522
 H        -0.127482        -0.988204         0.389594
 H         0.734537         0.199008         1.302027
 H         3.476261         0.539574        -0.328655
 H         2.896228         0.779489        -3.109718
 H         3.290632        -1.366819        -4.061780
 H         3.714697        -2.119223        -2.386326
 H         0.050906        -1.498499        -3.783884
 H        -0.221282        -2.179851        -2.145468
 H         0.278942         0.516590        -2.756697
