19
Iteration:    38
 C         0.358534         0.337012         0.497633
 C         1.172356        -0.039731        -0.669882
 O         2.134105        -1.044628        -0.273881
 C         2.629680         0.100553        -0.869219
 C         2.491174        -0.303719        -2.362638
 C         2.952939        -1.637025        -2.925656
 O         1.781144        -2.176011        -3.552007
 C         0.764546        -1.971166        -2.592342
 C         0.964549        -0.461682        -2.217099
 H         0.741347         1.185281         1.159700
 H        -0.704762         0.498178         0.207221
 H         0.161784        -0.663511         1.047594
 H         3.250061         0.929482        -0.283303
 H         2.819266         0.525824        -3.022506
 H         3.656687        -1.518384        -3.777515
 H         3.167049        -2.334343        -2.015098
 H        -0.202382        -2.151602        -3.149430
 H         1.027973        -2.559252        -1.711625
 H         0.380877         0.212878        -2.815772
