19
Iteration:  1580charge 0 multiplicity 1
 C         0.262056         0.324848         0.269832
 C         1.259043        -0.245134        -0.629636
 O         2.143706        -1.307879        -0.270887
 C         2.685857         0.023333        -0.843817
 C         2.538987        -0.082263        -2.420604
 C         2.959673        -1.416030        -3.191055
 O         1.852900        -2.378367        -3.148092
 C         0.634182        -1.775301        -2.581954
 C         0.938701        -0.359510        -2.168649
 H         0.030109         1.426465        -0.016674
 H        -0.655303        -0.200217         0.350031
 H         0.690407         0.274280         1.249858
 H         3.542939         0.366199        -0.190432
 H         2.804521         1.039094        -2.782562
 H         3.147072        -1.281355        -4.248499
 H         3.619040        -1.957732        -2.507263
 H        -0.068419        -1.638516        -3.377966
 H         0.184253        -2.371626        -1.786561
 H         0.370541         0.547728        -2.425346
