19
Iteration:   985charge 0 multiplicity 1
 C         0.250276         0.415543         0.325757
 C         1.249041        -0.157939        -0.626698
 O         2.132896        -1.258546        -0.285276
 C         2.706930         0.022034        -0.890407
 C         2.464751        -0.182733        -2.388351
 C         2.955250        -1.486165        -3.185260
 O         1.820231        -2.232938        -3.325727
 C         0.718057        -1.897243        -2.469942
 C         0.960454        -0.402212        -2.095333
 H         0.018253         1.431043         0.159323
 H        -0.761902        -0.234379         0.244309
 H         0.573164         0.264055         1.315502
 H         3.678729         0.506990        -0.382125
 H         2.736578         0.723291        -2.914822
 H         3.294144        -1.285963        -4.199463
 H         3.670322        -2.098325        -2.567594
 H        -0.142995        -1.925014        -2.995723
 H         0.692897        -2.571060        -1.581593
 H         0.283229         0.192750        -2.573161
