19
Iteration:  4868charge 0 multiplicity 1
 C         0.293410         0.316041         0.386318
 C         1.218095        -0.112045        -0.710879
 O         1.680739        -1.565780        -0.384773
 C         2.664672        -0.482904        -0.653180
 C         2.805268        -0.271541        -2.143341
 C         3.050468        -1.580307        -2.868906
 O         1.776670        -2.157207        -3.306629
 C         0.655111        -1.304829        -3.035967
 C         1.195902        -0.026069        -2.231290
 H         0.505003        -0.297433         1.262102
 H         0.380737         1.448068         0.681418
 H        -0.726160         0.134932         0.115674
 H         3.442873        -0.429749         0.063062
 H         3.499686         0.668182        -2.336756
 H         3.675549        -1.329768        -3.748250
 H         3.368207        -2.414506        -2.305874
 H         0.156603        -0.928999        -3.843738
 H        -0.060939        -1.744108        -2.300135
 H         0.780095         0.865799        -2.676377
