19
Iteration:   738charge 0 multiplicity 1
 C         0.467309         0.693947         0.450651
 C         1.148151        -0.165110        -0.571394
 O         1.967919        -1.341089        -0.152613
 C         2.591425        -0.150893        -0.861778
 C         2.389351        -0.161493        -2.410205
 C         2.990975        -1.264989        -3.270192
 O         2.044367        -2.381882        -3.294106
 C         0.709560        -2.000926        -2.689065
 C         0.909243        -0.456350        -2.104570
 H        -0.201881         1.579992        -0.026551
 H        -0.301759         0.060963         0.985996
 H         1.186780         1.072892         1.260257
 H         3.496713         0.332676        -0.308138
 H         2.506176         0.905785        -2.809592
 H         3.104494        -0.847367        -4.294679
 H         3.975021        -1.696484        -3.057101
 H        -0.037959        -2.103958        -3.548622
 H         0.394796        -2.843303        -1.991984
 H         0.157640         0.037182        -2.807430
