19
Iteration:   107
 C         0.211293         0.406424         0.355524
 C         1.244235        -0.264154        -0.583681
 O         2.266294        -1.120975        -0.159820
 C         2.706921         0.044086        -0.865483
 C         2.514927        -0.220029        -2.396273
 C         3.009143        -1.450948        -3.114146
 O         1.795696        -2.330139        -3.284799
 C         0.555413        -1.814362        -2.777246
 C         1.006447        -0.511865        -2.080501
 H         0.187661         1.460054         0.349391
 H        -0.885427         0.142743        -0.104602
 H         0.285674        -0.043038         1.317547
 H         3.284053         0.681001        -0.388025
 H         2.653121         0.709906        -2.962933
 H         3.388836        -1.293412        -4.141943
 H         3.615128        -2.097424        -2.440015
 H        -0.041568        -1.557560        -3.618188
 H         0.095355        -2.596689        -2.116941
 H         0.403375         0.412327        -2.462891
