19
Iteration:  4983
 C         0.186632         0.296100         0.300422
 C         1.198229        -0.222105        -0.696862
 O         1.752477        -1.498691        -0.292430
 C         2.701054        -0.433032        -0.575472
 C         2.855286        -0.360113        -2.077129
 C         3.000490        -1.591552        -3.005913
 O         1.680731        -2.178783        -3.250808
 C         0.645000        -1.150014        -3.078125
 C         1.332505        -0.086418        -2.224893
 H         0.655684         0.478462         1.272561
 H        -0.438364         1.154916        -0.058326
 H        -0.486147        -0.569287         0.445531
 H         3.343012        -0.268695         0.276749
 H         3.544233         0.382126        -2.497806
 H         3.353349        -1.080193        -3.959978
 H         3.668393        -2.429546        -2.574753
 H         0.528757        -0.740837        -4.048272
 H        -0.241354        -1.646279        -2.714905
 H         1.046016         0.987897        -2.381265
