19
Iteration:  2768
 C         0.341984         0.177477         0.426727
 C         1.219849        -0.312862        -0.746902
 O         2.348171        -1.244209        -0.325466
 C         2.620624         0.032513        -0.893754
 C         2.509042        -0.048544        -2.437102
 C         2.895886        -1.481592        -2.954309
 O         1.816466        -2.413381        -2.853630
 C         0.580382        -1.629207        -2.942284
 C         0.898401        -0.281831        -2.285215
 H        -0.101364         1.295369         0.188746
 H        -0.619322        -0.434744         0.680067
 H         0.915467         0.044543         1.280950
 H         3.194856         0.651976        -0.321802
 H         2.830727         0.828591        -2.959357
 H         3.275195        -1.500230        -3.975365
 H         3.664138        -1.783587        -2.276976
 H         0.367540        -1.485205        -3.955478
 H        -0.245331        -2.258409        -2.508878
 H         0.246189         0.557810        -2.513980
