19
Iteration:  1516
 C         0.440830         0.451066         0.454106
 C         1.161465        -0.206955        -0.699139
 O         1.978454        -1.373687        -0.237393
 C         2.611978        -0.125887        -0.864807
 C         2.480494        -0.164902        -2.371014
 C         2.833951        -1.320726        -3.318066
 O         2.053959        -2.339454        -2.870877
 C         0.753585        -1.787313        -2.780559
 C         0.890487        -0.360806        -2.246259
 H         0.299635         1.581889         0.180460
 H        -0.521099         0.057567         0.623698
 H         0.979841         0.286406         1.318515
 H         3.477966         0.259298        -0.299976
 H         2.783093         0.851537        -2.918799
 H         2.643233        -0.952655        -4.379762
 H         3.889442        -1.697674        -3.208706
 H         0.465085        -1.779484        -3.840034
 H         0.036972        -2.521665        -2.246135
 H         0.302257         0.372815        -2.800214
