19
Iteration:  3778charge 0 multiplicity 1
 C         0.364961         0.575416         0.283171
 C         1.228283        -0.269302        -0.646862
 O         1.831116        -1.471160        -0.120007
 C         2.701071        -0.387702        -0.578535
 C         2.722127        -0.334612        -2.163092
 C         2.969843        -1.460789        -3.128376
 O         1.725937        -1.955324        -3.668831
 C         0.733950        -1.660311        -2.758607
 C         1.040445        -0.323021        -2.148359
 H         0.733190         1.536538         0.427379
 H        -0.642627         0.721593        -0.142640
 H         0.219737         0.100292         1.323228
 H         3.406646         0.014294         0.235035
 H         3.154351         0.678186        -2.389317
 H         3.644293        -1.247338        -4.017463
 H         3.442102        -2.249573        -2.509546
 H        -0.295315        -1.640383        -3.298490
 H         0.769528        -2.358242        -1.918820
 H         0.464726         0.461099        -2.640851
