19
Iteration:  3147charge 0 multiplicity 1
 C         0.260686         0.235942         0.299359
 C         1.263408        -0.284519        -0.673804
 O         2.175369        -1.232047        -0.133170
 C         2.703216        -0.082346        -0.767527
 C         2.558928        -0.146619        -2.379884
 C         2.942681        -1.431762        -3.138271
 O         1.747554        -2.398305        -3.144894
 C         0.610771        -1.619334        -2.816455
 C         1.020965        -0.274236        -2.193346
 H        -0.553938        -0.614350         0.579147
 H         0.703500         0.433330         1.297385
 H        -0.169016         1.065633        -0.297875
 H         3.372585         0.610210        -0.140129
 H         2.987768         0.791946        -2.868722
 H         3.219848        -1.066814        -4.177656
 H         3.852657        -1.931570        -2.697749
 H        -0.040958        -1.489699        -3.593769
 H         0.006547        -2.163471        -2.055734
 H         0.476798         0.549570        -2.777279
