19
Iteration:  1176
 C         0.306144         0.224057         0.390707
 C         1.223056        -0.234288        -0.635622
 O         2.218398        -1.192692        -0.351513
 C         2.695370         0.062533        -0.912274
 C         2.447480        -0.108369        -2.446248
 C         2.947549        -1.562533        -2.918314
 O         1.821506        -2.337245        -3.118838
 C         0.607310        -1.713493        -2.800676
 C         0.981653        -0.355060        -2.159152
 H         0.006827         1.371670         0.363967
 H        -0.568672        -0.347351         0.344277
 H         0.883666         0.213705         1.414240
 H         3.302739         0.616982        -0.280129
 H         2.671579         0.598614        -3.246927
 H         3.599098        -1.512584        -3.840600
 H         3.550880        -2.106737        -2.138995
 H         0.067240        -1.457800        -3.769605
 H        -0.053443        -2.342730        -2.276269
 H         0.351346         0.561358        -2.494499
