19
Iteration:  4950
 C         0.135690         0.433022         0.243393
 C         1.222732        -0.307357        -0.580177
 O         1.822184        -1.537277        -0.128724
 C         2.702845        -0.476649        -0.589248
 C         2.793735        -0.332670        -2.165480
 C         2.990190        -1.598639        -3.040946
 O         1.712076        -2.117331        -3.380891
 C         0.681324        -1.165379        -3.116102
 C         1.281429        -0.162632        -2.106604
 H         0.413534         0.950221         1.196464
 H        -0.515245         1.133511        -0.273376
 H        -0.517754        -0.415178         0.576986
 H         3.493561        -0.240385         0.195236
 H         3.503673         0.372040        -2.582586
 H         3.615475        -1.361072        -3.997608
 H         3.602020        -2.478087        -2.602399
 H         0.517233        -0.538676        -4.038582
 H        -0.287323        -1.634200        -2.948260
 H         0.870065         0.870151        -2.333512
