19
Iteration:  1941charge 0 multiplicity 1
 C         0.225509         0.126794         0.383971
 C         1.233492        -0.259899        -0.661721
 O         2.245913        -1.219011        -0.277108
 C         2.687264         0.124202        -0.951104
 C         2.563623        -0.107042        -2.426517
 C         2.935559        -1.502508        -3.072401
 O         1.819854        -2.413629        -2.943641
 C         0.621625        -1.627579        -2.788854
 C         0.971670        -0.313481        -2.233849
 H        -0.010034         1.358025         0.280138
 H        -0.830851        -0.338851         0.420370
 H         0.565810        -0.029292         1.357543
 H         3.273233         0.722294        -0.219396
 H         2.847985         0.683561        -3.199161
 H         3.148554        -1.324865        -4.127802
 H         3.722186        -2.211852        -2.791655
 H         0.191021        -1.495689        -3.797425
 H        -0.112992        -2.129083        -2.028853
 H         0.246193         0.470145        -2.576132
