19
Iteration:  3405charge 0 multiplicity 1
 C         0.322518         0.330256         0.427651
 C         1.262074        -0.219100        -0.579173
 O         2.008962        -1.287748        -0.206441
 C         2.683254        -0.128672        -0.809053
 C         2.552167        -0.234376        -2.376913
 C         2.960147        -1.564349        -2.936324
 O         1.791042        -2.167850        -3.483381
 C         0.679331        -1.642653        -2.831697
 C         1.060716        -0.289812        -2.160745
 H         0.353547         1.403183         0.634722
 H        -0.742877         0.182494        -0.014960
 H         0.258318        -0.220717         1.491386
 H         3.486297         0.443954        -0.193274
 H         2.949969         0.608679        -2.957009
 H         3.790645        -1.557150        -3.645644
 H         3.332602        -2.145974        -2.108895
 H        -0.318254        -1.591223        -3.500770
 H         0.320247        -2.510930        -2.165316
 H         0.475198         0.536276        -2.546856
