19
Iteration:  4836charge 0 multiplicity 1
 C         0.192968         0.391005         0.276000
 C         1.193562        -0.262955        -0.621242
 O         1.717400        -1.622365        -0.431042
 C         2.700825        -0.375463        -0.610068
 C         2.840733        -0.312551        -2.149886
 C         3.026631        -1.593010        -3.006849
 O         1.742543        -2.132710        -3.250615
 C         0.693979        -1.247688        -2.934099
 C         1.247112        -0.059273        -2.132963
 H         0.057532        -0.127066         1.211952
 H         0.459332         1.457750         0.435285
 H        -0.738044         0.405203        -0.257499
 H         3.476385        -0.320028         0.136069
 H         3.492859         0.589246        -2.406294
 H         3.555466        -1.039503        -3.914219
 H         3.586089        -2.487696        -2.768322
 H         0.159165        -0.957299        -3.811105
 H        -0.036921        -1.942914        -2.355251
 H         0.816022         0.883576        -2.445276
