19
Iteration:  4303charge 0 multiplicity 1
 C         0.346843         0.630620         0.466720
 C         1.153700        -0.231054        -0.575162
 O         1.714020        -1.506617        -0.098253
 C         2.592505        -0.419074        -0.571010
 C         2.730298        -0.392157        -2.094681
 C         3.042491        -1.654576        -3.040442
 O         1.857400        -1.875966        -3.796133
 C         0.695578        -1.566538        -2.991958
 C         1.149307        -0.247163        -2.184358
 H         0.970645         0.743700         1.349021
 H         0.155271         1.654981         0.077568
 H        -0.596220        -0.009771         0.715030
 H         3.426439        -0.066998         0.200555
 H         3.202418         0.510350        -2.434058
 H         3.920580        -1.539239        -3.710695
 H         3.257769        -2.444532        -2.352420
 H        -0.003430        -1.470644        -3.780848
 H         0.239216        -2.509958        -2.501129
 H         0.691230         0.685521        -2.603771
