19
Iteration:  4925charge 0 multiplicity 1
 C         0.285649         0.406262         0.280700
 C         1.233219        -0.328862        -0.634428
 O         1.828874        -1.545939        -0.183942
 C         2.660964        -0.462827        -0.555864
 C         2.698099        -0.349102        -2.069609
 C         2.988430        -1.594097        -2.980361
 O         1.749004        -2.097835        -3.390817
 C         0.653570        -1.197667        -3.191298
 C         1.220669        -0.127986        -2.170217
 H         0.712789         0.996710         1.230386
 H        -0.139955         1.171354        -0.268564
 H        -0.621765        -0.190908         0.615414
 H         3.347452        -0.015193         0.346202
 H         3.278551         0.435211        -2.481478
 H         3.705071        -1.398775        -3.814088
 H         3.473955        -2.413552        -2.496595
 H         0.358091        -0.738727        -4.074378
 H        -0.243526        -1.779200        -2.800070
 H         0.934707         0.943460        -2.436603
