19
Iteration:  4289charge 0 multiplicity 1
 C         0.442885         0.475452         0.391527
 C         1.177153        -0.229616        -0.627044
 O         1.683199        -1.421325        -0.130243
 C         2.640014        -0.492220        -0.575118
 C         2.653293        -0.384499        -2.113899
 C         3.065439        -1.576609        -2.929757
 O         1.860156        -1.934554        -3.721920
 C         0.679842        -1.474869        -2.979093
 C         1.076386        -0.270804        -2.240702
 H         0.983326         0.384535         1.305235
 H         0.228218         1.592078         0.131967
 H        -0.605445         0.097803         0.533920
 H         3.321884        -0.087102         0.123046
 H         3.135672         0.572552        -2.320545
 H         3.864379        -1.443795        -3.677585
 H         3.308790        -2.462031        -2.282956
 H        -0.221915        -1.256551        -3.601668
 H         0.526123        -2.096230        -2.149223
 H         0.878886         0.700819        -2.781797
