19
Iteration:   589
 C         0.319271         0.157841         0.452896
 C         1.252225        -0.328888        -0.701464
 O         2.387522        -1.187380        -0.307738
 C         2.637769         0.065097        -0.973584
 C         2.422066        -0.132815        -2.528388
 C         2.877046        -1.491679        -2.888261
 O         1.800573        -2.433871        -2.756353
 C         0.614368        -1.554446        -3.030608
 C         0.883711        -0.317891        -2.294146
 H         0.105528         1.166527         0.593613
 H        -0.748614        -0.450903         0.311053
 H         0.838431        -0.054100         1.445552
 H         3.388923         0.768264        -0.514471
 H         2.839848         0.764344        -3.098799
 H         3.156781        -1.451244        -3.966152
 H         3.706813        -1.793036        -2.214038
 H         0.485353        -1.298031        -4.097134
 H        -0.136330        -2.222424        -2.628139
 H         0.230545         0.609805        -2.461438
