19
Iteration:  2840charge 0 multiplicity 1
 C         0.221751         0.154843         0.331275
 C         1.234343        -0.242670        -0.665141
 O         2.233581        -1.098118        -0.225355
 C         2.719942         0.032547        -0.873163
 C         2.558806        -0.171164        -2.376502
 C         2.956791        -1.515443        -3.076348
 O         1.780295        -2.355397        -3.133061
 C         0.536482        -1.670136        -2.766455
 C         1.021045        -0.355618        -2.134603
 H        -0.681462         0.495377        -0.075240
 H        -0.116941        -0.719292         0.882753
 H         0.747619         0.804269         1.125067
 H         3.494977         0.694357        -0.401022
 H         2.846930         0.674591        -3.073449
 H         3.257438        -1.226049        -4.140965
 H         3.775032        -2.186142        -2.619970
 H        -0.049427        -1.428746        -3.707903
 H        -0.045555        -2.349296        -2.148986
 H         0.512008         0.582082        -2.595974
