19
Iteration:  1841
 C         0.270844         0.268870         0.365566
 C         1.294390        -0.246339        -0.598854
 O         2.213912        -1.188314        -0.074604
 C         2.779559        -0.001021        -0.932543
 C         2.446205        -0.121288        -2.457729
 C         2.924395        -1.446785        -3.095750
 O         1.842643        -2.450492        -3.060702
 C         0.602238        -1.622066        -2.965646
 C         0.932163        -0.414802        -2.116290
 H        -0.472559         1.027179        -0.042921
 H        -0.307168        -0.600279         0.887440
 H         0.772140         0.727313         1.227888
 H         3.231355         0.722983        -0.503399
 H         2.633059         0.682449        -3.051194
 H         2.980669        -1.440395        -4.234089
 H         3.844225        -1.835713        -2.721815
 H         0.253217        -1.258086        -4.007758
 H        -0.209846        -2.402626        -2.658599
 H         0.330549         0.464440        -2.329199
