19
Iteration:  1362charge 0 multiplicity 1
 C         0.257415         0.390206         0.376191
 C         1.169320        -0.323058        -0.564677
 O         2.330729        -1.075545        -0.096598
 C         2.622713         0.065708        -0.909678
 C         2.494823        -0.299659        -2.366492
 C         2.947733        -1.612758        -2.915799
 O         1.768158        -2.155253        -3.559435
 C         0.658811        -1.823276        -2.796798
 C         0.987677        -0.479313        -2.094464
 H        -0.164179         1.436709         0.056390
 H        -0.584372        -0.221202         0.555410
 H         0.810575         0.706397         1.269410
 H         3.228598         0.828447        -0.342351
 H         2.752932         0.501201        -3.105175
 H         3.703703        -1.614016        -3.710522
 H         3.437862        -2.160501        -2.119283
 H        -0.227119        -1.572862        -3.438592
 H         0.385167        -2.755557        -2.256315
 H         0.366800         0.404982        -2.386857
