19
Iteration:  3674charge 0 multiplicity 1
 C         0.260859         0.371614         0.437488
 C         1.206200        -0.232977        -0.572974
 O         2.159286        -1.387044        -0.246873
 C         2.677319        -0.166560        -0.792903
 C         2.568231        -0.292616        -2.263474
 C         2.913830        -1.752820        -2.773271
 O         1.803411        -2.046641        -3.652712
 C         0.624850        -1.460779        -2.937696
 C         1.070308        -0.267691        -2.149603
 H         0.326245        -0.125336         1.471131
 H         0.246949         1.432027         0.661354
 H        -0.684810         0.116097         0.024758
 H         3.442819         0.417562        -0.149401
 H         3.120107         0.522543        -2.718711
 H         3.834661        -1.731402        -3.311592
 H         2.951275        -2.403903        -1.955941
 H        -0.191726        -1.372007        -3.604771
 H         0.125640        -2.113906        -2.078041
 H         0.518686         0.692102        -2.563661
