19
Iteration:    87charge 0 multiplicity 1
 C         0.164852         0.399815         0.251717
 C         1.307041        -0.142703        -0.551162
 O         2.382731        -1.161038        -0.095221
 C         2.746495         0.016668        -0.875360
 C         2.407530        -0.190989        -2.358970
 C         2.937077        -1.502773        -3.006588
 O         1.838041        -2.349211        -3.424880
 C         0.583602        -1.817256        -2.792248
 C         0.888845        -0.495364        -2.032159
 H         0.409830         1.442889         0.391078
 H        -0.796247         0.286255        -0.294405
 H         0.020368        -0.037187         1.210444
 H         3.595322         0.543679        -0.498651
 H         2.478242         0.708278        -2.960050
 H         3.420757        -1.201036        -3.915320
 H         3.562645        -2.074843        -2.371837
 H        -0.082146        -1.564533        -3.576588
 H         0.217623        -2.624232        -2.124602
 H         0.176789         0.344906        -2.386794
