19
Iteration:  4298charge 0 multiplicity 1
 C         0.392290         0.576251         0.417321
 C         1.139561        -0.227151        -0.564574
 O         1.701970        -1.475364        -0.104926
 C         2.633523        -0.442228        -0.564085
 C         2.705246        -0.391473        -2.072669
 C         3.073535        -1.605807        -3.018545
 O         1.861147        -1.901107        -3.775370
 C         0.684948        -1.541041        -2.966042
 C         1.102345        -0.257566        -2.247109
 H         0.927837         0.570729         1.401187
 H         0.168441         1.634314         0.134714
 H        -0.454639         0.032589         0.685461
 H         3.299349        -0.079263         0.084671
 H         3.141661         0.620295        -2.333470
 H         3.892294        -1.641415        -3.744814
 H         3.147523        -2.566412        -2.364040
 H        -0.046177        -1.420623        -3.855502
 H         0.292307        -2.303487        -2.348844
 H         0.780122         0.717786        -2.628104
