19
Iteration:  2405
 C         0.237175         0.231652         0.323752
 C         1.252231        -0.241936        -0.571447
 O         2.217385        -1.116173        -0.194464
 C         2.673828         0.070706        -0.835436
 C         2.531279        -0.246631        -2.338621
 C         2.868797        -1.453007        -3.242315
 O         1.847253        -2.413789        -3.119374
 C         0.612112        -1.737544        -2.794142
 C         0.995191        -0.351395        -2.163701
 H        -0.255555         1.237470        -0.017231
 H        -0.402942        -0.622599         0.564421
 H         0.795983         0.546779         1.228739
 H         3.344968         0.704178        -0.310722
 H         2.866504         0.730651        -2.768863
 H         2.911379        -1.042358        -4.222988
 H         3.837201        -1.916423        -3.024754
 H         0.038414        -1.724885        -3.683698
 H         0.135917        -2.432285        -1.938215
 H         0.598978         0.603592        -2.563386
