19
Iteration:  4434charge 0 multiplicity 1
 C         0.300068         0.332912         0.375774
 C         1.192312        -0.219482        -0.614243
 O         1.838375        -1.557985        -0.413650
 C         2.633268        -0.367978        -0.615752
 C         2.739048        -0.304265        -2.161806
 C         2.993048        -1.703290        -2.787328
 O         1.782121        -2.061061        -3.468663
 C         0.599230        -1.235795        -2.998828
 C         1.205500        -0.109891        -2.250141
 H         0.460468        -0.095852         1.412745
 H         0.470142         1.394264         0.447773
 H        -0.851104         0.193086         0.166125
 H         3.314524         0.181686         0.143217
 H         3.344665         0.447779        -2.603129
 H         3.931193        -1.857671        -3.422246
 H         3.224013        -2.285037        -1.847988
 H         0.120690        -0.965649        -3.896510
 H         0.047618        -1.883430        -2.364042
 H         0.997616         0.934682        -2.536277
