19
Iteration:  2350
 C         0.362179         0.450283         0.349341
 C         1.235446        -0.205874        -0.644077
 O         1.994700        -1.400877        -0.411804
 C         2.668227        -0.117865        -0.838308
 C         2.458439        -0.076924        -2.459910
 C         2.878739        -1.284022        -3.284979
 O         2.046958        -2.336652        -2.899892
 C         0.725466        -1.839181        -2.576178
 C         0.898808        -0.419614        -2.187970
 H         0.449155         1.627676         0.203337
 H        -0.692378         0.211492         0.185143
 H         0.730742         0.268141         1.420592
 H         3.369685         0.246662        -0.232997
 H         2.624798         0.962449        -2.812328
 H         2.743596        -0.987808        -4.342861
 H         3.923179        -1.590061        -3.137705
 H         0.038280        -1.933790        -3.441462
 H         0.190251        -2.482609        -1.748321
 H         0.182785         0.256977        -2.623748
