19
Iteration:  4495
 C         0.187950         0.420469         0.269442
 C         1.221195        -0.274176        -0.633143
 O         1.765689        -1.503828        -0.195305
 C         2.713758        -0.561496        -0.552151
 C         2.790251        -0.425268        -2.112841
 C         2.995812        -1.517626        -3.130417
 O         1.739126        -2.097523        -3.292780
 C         0.693762        -1.226294        -3.066095
 C         1.252040        -0.133442        -2.191161
 H         0.727204         0.484618         1.192949
 H        -0.116867         1.528487         0.025615
 H        -0.706350        -0.117995         0.441762
 H         3.360490        -0.048906         0.243227
 H         3.471876         0.486507        -2.317635
 H         3.367230        -1.043103        -4.031142
 H         3.634038        -2.323291        -2.782544
 H         0.295630        -0.854407        -4.089329
 H        -0.128764        -1.731958        -2.423066
 H         0.700182         0.714344        -2.679951
