19
Iteration:  4927
 C         0.282023         0.388717         0.261984
 C         1.235508        -0.310773        -0.636007
 O         1.819715        -1.543477        -0.171960
 C         2.679719        -0.462011        -0.569650
 C         2.706015        -0.347603        -2.048347
 C         3.004085        -1.584012        -2.984798
 O         1.729187        -2.104733        -3.395242
 C         0.657415        -1.178539        -3.178237
 C         1.208744        -0.151378        -2.164945
 H         0.713841         1.002994         1.152554
 H        -0.086314         1.142420        -0.306755
 H        -0.623091        -0.191593         0.642715
 H         3.362019        -0.039952         0.322319
 H         3.201436         0.453232        -2.480865
 H         3.740879        -1.395006        -3.868420
 H         3.507626        -2.427177        -2.433148
 H         0.335933        -0.740066        -4.144135
 H        -0.222455        -1.768257        -2.827832
 H         0.943279         0.940745        -2.369001
