19
Iteration:  2044charge 0 multiplicity 1
 C         0.350986         0.433659         0.400543
 C         1.182107        -0.214405        -0.675471
 O         1.917922        -1.377757        -0.331556
 C         2.687235        -0.139951        -0.849631
 C         2.443576        -0.141396        -2.419502
 C         2.983735        -1.300574        -3.310511
 O         1.998516        -2.352093        -3.006606
 C         0.743689        -1.770944        -2.572772
 C         0.948626        -0.361946        -2.212833
 H        -0.268054         1.322630         0.015214
 H        -0.357414        -0.173471         0.895047
 H         1.132074         0.900688         1.173539
 H         3.435475         0.247718        -0.268744
 H         2.651192         0.928258        -2.791567
 H         3.020039        -1.101883        -4.405125
 H         3.946146        -1.683490        -2.926741
 H        -0.092923        -1.854350        -3.322783
 H         0.463328        -2.343642        -1.749928
 H         0.275543         0.242880        -2.751862
