19
Iteration:   218charge 0 multiplicity 1
 C         0.295976         0.323060         0.343535
 C         1.254284        -0.222898        -0.654572
 O         2.143316        -1.202188        -0.161614
 C         2.701543        -0.064983        -0.802297
 C         2.510576        -0.155900        -2.365138
 C         2.873688        -1.455047        -3.281811
 O         1.914981        -2.479807        -2.982354
 C         0.626255        -1.638525        -2.915095
 C         0.985072        -0.374547        -2.128840
 H        -0.725651         0.512767        -0.048533
 H        -0.008521        -0.405212         1.142731
 H         0.707369         1.271765         0.773007
 H         3.413732         0.534657        -0.338829
 H         2.779056         0.824944        -2.761787
 H         2.604897        -1.058427        -4.326646
 H         3.912820        -1.807730        -3.132185
 H         0.132949        -1.335790        -3.860290
 H        -0.108676        -2.261324        -2.386462
 H         0.348617         0.561640        -2.321738
