19
Iteration:  3431charge 0 multiplicity 1
 C         0.183860         0.358008         0.354743
 C         1.223551        -0.148478        -0.612709
 O         2.135816        -1.236167        -0.150066
 C         2.710512        -0.104479        -0.672399
 C         2.613124        -0.369597        -2.216914
 C         2.971223        -1.669074        -3.057428
 O         1.719675        -2.017481        -3.617250
 C         0.631986        -1.725551        -2.776397
 C         1.091637        -0.329846        -2.151238
 H        -0.033386         1.419143         0.156475
 H        -0.765533        -0.173449         0.364977
 H         0.550869         0.232189         1.469369
 H         3.424738         0.535593        -0.255428
 H         3.040410         0.522556        -2.742658
 H         3.704963        -1.515381        -3.890545
 H         3.433759        -2.512588        -2.394649
 H        -0.198319        -1.752283        -3.400387
 H         0.410035        -2.494909        -2.013264
 H         0.581234         0.545668        -2.666128
