19
Iteration:     6charge 0 multiplicity 1
 C         0.239305         0.408186         0.403076
 C         1.201345        -0.166383        -0.642514
 O         2.195464        -1.109820        -0.194511
 C         2.644681         0.076837        -0.942746
 C         2.460326        -0.232370        -2.445984
 C         2.980606        -1.535900        -2.975451
 O         1.805904        -2.227942        -3.484259
 C         0.749614        -1.919765        -2.570501
 C         0.936389        -0.457763        -2.142736
 H         0.830761         0.559694         1.344487
 H        -0.323111         1.313103         0.077008
 H        -0.309715        -0.555515         0.732594
 H         3.558062         0.522620        -0.414012
 H         2.738622         0.674105        -3.018442
 H         3.747901        -1.582702        -3.780820
 H         3.480456        -2.204240        -2.214379
 H        -0.235531        -2.147443        -3.050431
 H         0.712417        -2.618517        -1.708222
 H         0.178948         0.251861        -2.546850
