19
Iteration:  4363charge 0 multiplicity 1
 C         0.229802         0.461036         0.215504
 C         1.201504        -0.273038        -0.631760
 O         1.790454        -1.438422        -0.064852
 C         2.744827        -0.435604        -0.543872
 C         2.771335        -0.438957        -2.102218
 C         2.968105        -1.676166        -2.959322
 O         1.734988        -1.795404        -3.825656
 C         0.677121        -1.450250        -2.879315
 C         1.253868        -0.261361        -2.110992
 H         0.546963         0.714043         1.246221
 H        -0.190761         1.345600        -0.292184
 H        -0.617772        -0.132122         0.367122
 H         3.369881        -0.027897         0.149540
 H         3.182710         0.570232        -2.420917
 H         3.897373        -1.753009        -3.513796
 H         2.931499        -2.477458        -2.170246
 H        -0.261520        -1.113800        -3.461399
 H         0.559632        -2.268402        -2.148228
 H         0.957041         0.651421        -2.607175
