19
Iteration:  2427
 C         0.220832         0.228835         0.399391
 C         1.205487        -0.214540        -0.631976
 O         2.335740        -1.157377        -0.167189
 C         2.656205         0.025821        -0.851109
 C         2.528653        -0.140255        -2.469129
 C         2.985841        -1.489909        -3.101733
 O         1.757599        -2.394648        -3.112408
 C         0.606914        -1.706493        -2.875771
 C         0.974549        -0.396656        -2.162541
 H        -0.615589         0.955955         0.107870
 H        -0.166829        -0.691128         0.786380
 H         0.759460         0.794809         1.161501
 H         3.284567         0.770706        -0.336440
 H         2.670459         0.821333        -3.012795
 H         3.293324        -1.383628        -4.118891
 H         3.788657        -1.979578        -2.522666
 H         0.089043        -1.379545        -3.722010
 H        -0.143403        -2.351171        -2.245952
 H         0.361819         0.460009        -2.531717
