19
Iteration:  2508charge 0 multiplicity 1
 C         0.249741         0.092698         0.407162
 C         1.238333        -0.150613        -0.708370
 O         2.264786        -1.135661        -0.260863
 C         2.661739         0.046486        -0.919494
 C         2.538329        -0.164407        -2.462979
 C         2.917793        -1.483754        -3.098767
 O         1.818851        -2.402481        -2.861315
 C         0.582771        -1.612591        -2.888872
 C         0.984273        -0.359102        -2.184147
 H        -0.401647         0.882194         0.218232
 H        -0.367032        -0.925240         0.557907
 H         0.774536        -0.001388         1.320309
 H         3.446877         0.709260        -0.519964
 H         2.738192         0.751749        -2.974702
 H         3.192330        -1.421958        -4.167459
 H         3.744349        -1.892644        -2.549825
 H         0.272198        -1.367164        -3.894092
 H        -0.168343        -2.199224        -2.412775
 H         0.309626         0.524029        -2.573568
