19
Iteration:  1825
 C         0.315297         0.350034         0.417817
 C         1.222951        -0.248289        -0.562665
 O         2.249155        -1.156373        -0.081750
 C         2.605836        -0.001346        -0.871192
 C         2.481827        -0.233845        -2.439620
 C         2.942749        -1.457740        -3.215035
 O         1.833961        -2.378853        -3.126737
 C         0.621962        -1.706595        -2.927246
 C         0.932311        -0.440369        -2.147559
 H        -0.232451         1.163972        -0.041253
 H        -0.460360        -0.441338         0.675328
 H         0.827138         0.700923         1.417515
 H         3.571909         0.595257        -0.396547
 H         2.754214         0.820099        -2.878274
 H         3.410660        -1.122514        -4.118772
 H         3.802782        -1.975321        -2.698160
 H         0.244677        -1.445620        -3.932434
 H        -0.030334        -2.389321        -2.450881
 H         0.257469         0.380625        -2.512798
