19
Iteration:  2105charge 0 multiplicity 1
 C         0.313552         0.295387         0.366033
 C         1.214376        -0.254870        -0.619904
 O         2.188431        -1.251297        -0.130913
 C         2.614121        -0.041527        -0.849505
 C         2.537903        -0.144363        -2.367571
 C         2.900654        -1.404172        -3.292575
 O         1.872426        -2.396671        -2.963271
 C         0.642170        -1.710992        -2.824897
 C         0.969389        -0.368740        -2.238883
 H        -0.186232         1.069293        -0.321795
 H        -0.602362        -0.293041         0.767443
 H         0.872391         0.671157         1.173528
 H         3.294002         0.814558        -0.344951
 H         2.911124         0.792149        -2.850688
 H         2.876589        -0.950299        -4.390102
 H         3.915080        -1.864160        -3.220890
 H         0.160069        -1.479511        -3.822513
 H         0.085075        -2.487402        -2.120359
 H         0.348324         0.506275        -2.645577
