19
Iteration:  4412
 C         0.285016         0.290106         0.257556
 C         1.204073        -0.196084        -0.639449
 O         1.778677        -1.473526        -0.239091
 C         2.697014        -0.358508        -0.634763
 C         2.813171        -0.297930        -2.141830
 C         2.913608        -1.705570        -2.821417
 O         1.765773        -2.002485        -3.575112
 C         0.622692        -1.330672        -2.975885
 C         1.232116        -0.114818        -2.183929
 H         0.562086        -0.175138         1.239013
 H         0.371676         1.356580         0.420132
 H        -0.845419         0.019441         0.244775
 H         3.558483        -0.340924         0.182115
 H         3.408388         0.474567        -2.570895
 H         3.889883        -1.586528        -3.353962
 H         3.161396        -2.434859        -2.002623
 H         0.048508        -1.106038        -3.834035
 H         0.093868        -1.966426        -2.267555
 H         0.764292         0.812116        -2.597080
