19
Iteration:  1697charge 0 multiplicity 1
 C         0.239152         0.380233         0.393922
 C         1.234269        -0.216257        -0.559802
 O         2.262030        -1.069463        -0.038312
 C         2.721805         0.040382        -0.854058
 C         2.473683        -0.268060        -2.425219
 C         2.963821        -1.582991        -2.991034
 O         1.762455        -2.193747        -3.630021
 C         0.646645        -1.834703        -2.771657
 C         0.971362        -0.517301        -2.063152
 H        -0.272201         1.113565        -0.080952
 H        -0.562423        -0.334319         0.770361
 H         0.726854         0.879628         1.320813
 H         3.495620         0.564770        -0.150311
 H         2.743050         0.546427        -3.002974
 H         3.595048        -1.231401        -3.851631
 H         3.371802        -2.186518        -2.186025
 H        -0.308740        -1.715786        -3.425237
 H         0.517048        -2.774810        -2.140656
 H         0.247404         0.212103        -2.544546
