19
Iteration:  1537charge 0 multiplicity 1
 C         0.359168         0.419752         0.441277
 C         1.172812        -0.188457        -0.674550
 O         1.979391        -1.322972        -0.263038
 C         2.672534        -0.224712        -0.908520
 C         2.487129        -0.109130        -2.472473
 C         2.917984        -1.291411        -3.351323
 O         2.032419        -2.425372        -2.835626
 C         0.696749        -1.745195        -2.775148
 C         0.955828        -0.327249        -2.152658
 H         0.293004         1.562214         0.287437
 H        -0.619784         0.051432         0.427091
 H         0.737013         0.045805         1.336470
 H         3.451704         0.345043        -0.304089
 H         2.617125         1.055632        -2.840548
 H         2.655854        -1.115655        -4.431099
 H         3.923268        -1.629346        -3.074662
 H         0.175706        -1.773813        -3.708152
 H         0.205691        -2.424180        -2.020202
 H         0.178421         0.314369        -2.589492
