19
Iteration:  3093charge 0 multiplicity 1
 C         0.278494         0.307386         0.438144
 C         1.231356        -0.218807        -0.657522
 O         2.168332        -1.268903        -0.286877
 C         2.646166        -0.012096        -0.865814
 C         2.473490        -0.162555        -2.412746
 C         2.925161        -1.519313        -2.933502
 O         1.850617        -2.315345        -3.281261
 C         0.635150        -1.675715        -2.786516
 C         0.999116        -0.318985        -2.179382
 H        -0.815281         0.342359         0.025687
 H         0.571176        -0.402294         1.198063
 H         0.513157         1.286363         0.803864
 H         3.538598         0.390933        -0.334972
 H         2.925805         0.680777        -2.995754
 H         3.652621        -1.350261        -3.780459
 H         3.443920        -1.944015        -2.097524
 H        -0.116943        -1.663109        -3.563395
 H         0.305796        -2.345237        -1.923128
 H         0.358945         0.424222        -2.708513
