19
Iteration:   177charge 0 multiplicity 1
 C         0.291355         0.346952         0.428347
 C         1.215734        -0.188769        -0.639829
 O         2.079704        -1.334654        -0.411247
 C         2.677280        -0.176328        -0.947100
 C         2.462520        -0.072761        -2.465475
 C         3.038049        -1.409138        -3.100567
 O         1.921513        -2.461334        -3.020642
 C         0.642789        -1.675971        -2.656190
 C         0.892289        -0.214492        -2.180250
 H        -0.555093         0.891522        -0.117678
 H        -0.144552        -0.371554         1.005969
 H         0.899913         1.043863         1.095665
 H         3.573347         0.377912        -0.258611
 H         2.742181         0.903759        -2.894431
 H         3.444752        -1.401007        -4.087230
 H         3.750605        -1.713916        -2.410951
 H         0.053328        -1.797298        -3.538835
 H         0.269135        -2.211455        -1.790292
 H         0.255262         0.561554        -2.591519
