19
Iteration:  4445
 C         0.208709         0.401517         0.429616
 C         1.136245        -0.202741        -0.661660
 O         1.900039        -1.550713        -0.419808
 C         2.611478        -0.387293        -0.700771
 C         2.787131        -0.345226        -2.167152
 C         3.024706        -1.691188        -2.774566
 O         1.787548        -2.082246        -3.450172
 C         0.615455        -1.247681        -3.019735
 C         1.218602        -0.097853        -2.135979
 H         0.588656        -0.073134         1.402615
 H         0.409304         1.447748         0.501520
 H        -0.949352         0.204564         0.273667
 H         3.482300        -0.318710         0.076706
 H         3.267479         0.526049        -2.500095
 H         3.840436        -1.531401        -3.582020
 H         3.186331        -2.583729        -2.080559
 H         0.116730        -0.899299        -3.889219
 H        -0.156645        -1.744667        -2.502886
 H         0.926368         0.812558        -2.658910
