19
Iteration:  1730
 C         0.270036         0.394522         0.343672
 C         1.189576        -0.205089        -0.627753
 O         2.142466        -1.192682        -0.186590
 C         2.658887        -0.037002        -0.811471
 C         2.528336        -0.209055        -2.387000
 C         2.969119        -1.432820        -3.115819
 O         1.790648        -2.282595        -3.441554
 C         0.706856        -1.840700        -2.573713
 C         0.985541        -0.425977        -2.137012
 H         0.059679         1.334458         0.058633
 H        -0.688971        -0.192406         0.512465
 H         0.820363         0.337157         1.347916
 H         3.434966         0.529796        -0.191208
 H         2.828373         0.559951        -3.013592
 H         3.443353        -1.139016        -4.099291
 H         3.814461        -1.952003        -2.718661
 H        -0.326203        -1.751473        -3.063319
 H         0.625984        -2.471997        -1.636369
 H         0.305286         0.294841        -2.671718
