19
Iteration:   755
 C         0.388008         0.625260         0.487420
 C         1.173354        -0.162257        -0.592532
 O         1.990460        -1.243531        -0.203779
 C         2.631712        -0.212849        -0.894433
 C         2.410769        -0.213859        -2.376285
 C         2.955913        -1.263833        -3.299860
 O         2.007438        -2.356196        -3.221116
 C         0.793137        -1.925290        -2.682813
 C         0.862530        -0.534062        -2.189859
 H         0.179298         1.556499         0.141164
 H        -0.577416         0.168076         0.884035
 H         1.027150         0.871856         1.270403
 H         3.416241         0.330223        -0.415374
 H         2.643964         0.758002        -2.758163
 H         3.056661        -1.043184        -4.397074
 H         3.864277        -1.642646        -2.797646
 H        -0.023414        -1.908430        -3.393928
 H         0.592582        -2.593782        -1.871696
 H         0.216928         0.203182        -2.511974
