19
Iteration:  4481charge 0 multiplicity 1
 C         0.301120         0.353376         0.272923
 C         1.217127        -0.206464        -0.679036
 O         1.731174        -1.520607        -0.148423
 C         2.665481        -0.466707        -0.593870
 C         2.773111        -0.330437        -2.122629
 C         3.053785        -1.530607        -2.989330
 O         1.718527        -2.189703        -3.400527
 C         0.630222        -1.226995        -3.053524
 C         1.223367        -0.100968        -2.182348
 H         0.696244         0.181950         1.360955
 H         0.080628         1.418199         0.051342
 H        -0.642034        -0.241809         0.129988
 H         3.446805        -0.358320         0.028195
 H         3.368073         0.567036        -2.406162
 H         3.493840        -1.251559        -3.963308
 H         3.716406        -2.296417        -2.592580
 H         0.269048        -0.764113        -3.917013
 H        -0.166736        -1.869104        -2.604967
 H         1.104701         0.947142        -2.357305
