19
Iteration:  3437
 C         0.196151         0.380303         0.363072
 C         1.221969        -0.183621        -0.608583
 O         2.123293        -1.245199        -0.119008
 C         2.711363        -0.078789        -0.701123
 C         2.630636        -0.372143        -2.228245
 C         2.945218        -1.668949        -3.051876
 O         1.699184        -2.011568        -3.632318
 C         0.666135        -1.727368        -2.777182
 C         1.110840        -0.319185        -2.130615
 H        -0.129926         1.346612        -0.037913
 H        -0.685300        -0.335972         0.301829
 H         0.462464         0.358998         1.430186
 H         3.383404         0.549782        -0.007420
 H         3.057809         0.454049        -2.794608
 H         3.625317        -1.470303        -3.874843
 H         3.264206        -2.497745        -2.473426
 H        -0.325776        -1.648305        -3.410585
 H         0.734221        -2.563474        -2.030011
 H         0.614115         0.432826        -2.702936
