19
Iteration:  4870charge 0 multiplicity 1
 C         0.294867         0.326224         0.388221
 C         1.252767        -0.111379        -0.706471
 O         1.670895        -1.563827        -0.380033
 C         2.649494        -0.466777        -0.664984
 C         2.809500        -0.278447        -2.126974
 C         3.032089        -1.580044        -2.857544
 O         1.779651        -2.148659        -3.313081
 C         0.673131        -1.305323        -3.049644
 C         1.170057        -0.035060        -2.231924
 H         0.585581        -0.302079         1.334744
 H         0.353593         1.315900         0.655899
 H        -0.767472         0.119150         0.139137
 H         3.511395        -0.454341         0.136215
 H         3.466282         0.546547        -2.418195
 H         3.681942        -1.347408        -3.813883
 H         3.443777        -2.423830        -2.282943
 H         0.161896        -0.923518        -3.917395
 H        -0.041482        -1.745793        -2.300050
 H         0.747242         0.891826        -2.689657
