19
Iteration:   679charge 0 multiplicity 1
 C         0.246589         0.462197         0.314998
 C         1.224332        -0.197428        -0.562659
 O         2.096046        -1.226051        -0.265087
 C         2.719920        -0.133575        -0.851809
 C         2.482260        -0.146749        -2.360782
 C         2.918064        -1.388506        -3.274725
 O         1.910090        -2.395164        -3.174486
 C         0.725373        -1.805084        -2.607459
 C         0.971248        -0.366097        -2.107311
 H        -0.293188         1.133243        -0.296857
 H        -0.532429        -0.504551         0.565726
 H         0.509606         0.888453         1.286329
 H         3.545869         0.317799        -0.379342
 H         2.676058         0.722902        -2.880784
 H         2.943495        -1.059620        -4.384683
 H         3.906038        -1.872452        -3.049406
 H        -0.145098        -1.734664        -3.254912
 H         0.494126        -2.480080        -1.816771
 H         0.298753         0.299445        -2.581671
