19
Iteration:  4959
 C         0.095503         0.379501         0.294833
 C         1.214349        -0.213852        -0.555346
 O         1.840085        -1.559223        -0.158061
 C         2.704565        -0.473231        -0.588938
 C         2.801336        -0.376873        -2.120829
 C         2.975224        -1.648002        -3.106557
 O         1.712834        -2.133023        -3.353526
 C         0.729695        -1.136992        -3.133812
 C         1.274223        -0.106223        -2.168139
 H         0.446500         1.018164         1.234566
 H        -0.315348         1.015953        -0.378637
 H        -0.714509        -0.361504         0.606294
 H         3.450120        -0.079686         0.284084
 H         3.347918         0.452104        -2.507337
 H         3.462581        -1.289571        -4.033811
 H         3.498776        -2.399096        -2.546347
 H         0.509761        -0.755122        -4.049363
 H        -0.154728        -1.747743        -2.777079
 H         1.023502         0.989597        -2.327194
