19
Iteration:  4210
 C         0.136920         0.240256         0.239785
 C         1.281414        -0.243563        -0.665399
 O         1.863413        -1.414220        -0.163159
 C         2.768731        -0.413099        -0.585678
 C         2.799688        -0.328900        -2.236290
 C         2.993159        -1.645647        -2.898453
 O         1.692276        -2.034545        -3.511774
 C         0.542952        -1.314121        -2.920968
 C         1.274006        -0.096241        -2.173165
 H         0.364706        -0.227598         1.288424
 H         0.176953         1.328627         0.297743
 H        -0.766977        -0.183478        -0.112127
 H         3.529590        -0.063600         0.121839
 H         3.394589         0.513775        -2.749611
 H         3.742374        -1.511624        -3.680581
 H         3.340517        -2.433785        -2.210877
 H        -0.189828        -0.931786        -3.727329
 H        -0.150232        -1.753808        -2.301628
 H         1.045359         0.930302        -2.479639
