19
Iteration:  1151charge 0 multiplicity 1
 C         0.261380         0.135133         0.432435
 C         1.211323        -0.111431        -0.694202
 O         2.238986        -1.182114        -0.307181
 C         2.711299         0.067570        -0.878214
 C         2.545013        -0.162120        -2.435753
 C         2.982159        -1.596412        -2.888190
 O         1.791411        -2.326726        -3.268004
 C         0.545620        -1.700011        -2.661231
 C         0.946559        -0.286790        -2.272843
 H        -0.461364         1.030762         0.195041
 H        -0.403295        -0.785459         0.590735
 H         0.820345         0.562493         1.357388
 H         3.343645         0.694951        -0.280242
 H         2.938606         0.532466        -3.229118
 H         3.675735        -1.569682        -3.799052
 H         3.504335        -2.104134        -2.085316
 H        -0.269911        -1.751819        -3.384969
 H         0.255554        -2.320831        -1.781414
 H         0.620597         0.577176        -2.839486
