19
Iteration:   689charge 0 multiplicity 1
 C         0.231329         0.526359         0.332303
 C         1.253605        -0.179793        -0.608807
 O         2.110116        -1.315991        -0.211688
 C         2.727336        -0.108351        -0.812413
 C         2.491280        -0.195815        -2.411045
 C         2.895298        -1.338092        -3.306785
 O         1.922606        -2.348307        -3.187389
 C         0.702853        -1.839239        -2.618920
 C         0.937538        -0.423590        -2.130214
 H        -0.362964         1.208220        -0.194128
 H        -0.590904        -0.292907         0.810491
 H         0.707550         1.121894         1.145985
 H         3.425963         0.315497        -0.167607
 H         2.708573         0.799621        -2.758305
 H         3.072496        -0.961514        -4.419620
 H         3.835183        -1.803860        -2.899035
 H         0.045966        -2.106643        -3.395998
 H         0.468138        -2.373491        -1.713952
 H         0.249705         0.288290        -2.578333
