19
Iteration:  3289
 C         0.196491         0.387659         0.319596
 C         1.245381        -0.262960        -0.652800
 O         2.129442        -1.393748        -0.120311
 C         2.689995        -0.196924        -0.717264
 C         2.561699        -0.152611        -2.296690
 C         2.877773        -1.414221        -3.187958
 O         1.822731        -2.315309        -3.227385
 C         0.675771        -1.593628        -2.798124
 C         1.085906        -0.286014        -2.220324
 H         0.608165         0.575597         1.330506
 H        -0.071138         1.350864        -0.120975
 H        -0.616858        -0.341096         0.173731
 H         3.500490         0.554352        -0.238997
 H         2.967094         0.809562        -2.796040
 H         3.139391        -1.235155        -4.233219
 H         3.733795        -2.093336        -2.856069
 H        -0.171202        -1.471383        -3.540905
 H         0.178119        -2.284562        -2.051869
 H         0.452989         0.566216        -2.679845
