19
Iteration:    75
 C         0.227498         0.448893         0.300129
 C         1.276075        -0.279231        -0.538655
 O         2.336087        -1.127188        -0.106120
 C         2.686338         0.033344        -0.898046
 C         2.386754        -0.258351        -2.398479
 C         2.917438        -1.522409        -3.030044
 O         1.797263        -2.270477        -3.423947
 C         0.684312        -1.817858        -2.764308
 C         0.960514        -0.456479        -2.069330
 H         0.211454         1.451987         0.606679
 H        -0.725542         0.228659        -0.362867
 H         0.095432        -0.140195         1.160963
 H         3.253560         0.744291        -0.507068
 H         2.686592         0.609544        -2.980058
 H         3.690432        -1.449754        -3.805033
 H         3.495920        -2.007796        -2.254433
 H        -0.123553        -1.854292        -3.424503
 H         0.325995        -2.558726        -1.992217
 H         0.247404         0.437213        -2.405290
