19
Iteration:  2464
 C         0.322670         0.184872         0.440504
 C         1.222860        -0.200572        -0.691084
 O         2.325919        -1.195701        -0.405738
 C         2.604786         0.104390        -0.921877
 C         2.458810        -0.103127        -2.425668
 C         3.001919        -1.485009        -2.825908
 O         1.737640        -2.425641        -3.044617
 C         0.615561        -1.643564        -2.919457
 C         0.935056        -0.383075        -2.155447
 H        -0.580337         0.630249         0.179668
 H         0.012976        -0.807053         1.122566
 H         0.933110         0.654728         1.187477
 H         3.339435         0.737746        -0.306674
 H         2.762206         0.678786        -3.085789
 H         3.511960        -1.533113        -3.817192
 H         3.596544        -2.066786        -2.134212
 H         0.311687        -1.404179        -3.996500
 H        -0.161615        -2.258701        -2.609561
 H         0.268697         0.495069        -2.574869
