19
Iteration:  1692
 C         0.255925         0.358546         0.413384
 C         1.243031        -0.219950        -0.562023
 O         2.259625        -1.068919        -0.056859
 C         2.685712         0.082300        -0.877682
 C         2.482921        -0.266748        -2.388952
 C         2.954408        -1.590745        -2.951909
 O         1.758758        -2.198681        -3.682298
 C         0.642959        -1.831370        -2.754727
 C         0.985594        -0.534635        -2.041039
 H        -0.369525         1.219232        -0.203967
 H        -0.486659        -0.344213         0.750394
 H         0.718950         0.941868         1.184216
 H         3.495324         0.512058        -0.348724
 H         2.713324         0.731943        -2.971726
 H         3.685906        -1.354887        -3.695862
 H         3.267483        -2.322824        -2.164490
 H        -0.183854        -1.675931        -3.386246
 H         0.492101        -2.723425        -2.197030
 H         0.319513         0.206053        -2.421053
