19
Iteration:  1888
 C         0.265364         0.060591         0.401665
 C         1.212609        -0.272562        -0.741283
 O         2.210741        -1.209178        -0.408748
 C         2.672445         0.034978        -0.934306
 C         2.526827        -0.119271        -2.443534
 C         2.888400        -1.463892        -3.037114
 O         1.818436        -2.398854        -2.799285
 C         0.606339        -1.596391        -2.798566
 C         1.057091        -0.208759        -2.264542
 H        -0.602359         0.746665         0.077058
 H        -0.108175        -0.802738         0.835610
 H         0.785394         0.537399         1.165790
 H         3.428798         0.521268        -0.219254
 H         2.919415         0.755705        -3.114459
 H         3.282252        -1.582296        -4.110241
 H         3.663087        -1.942244        -2.353912
 H         0.082854        -1.602654        -3.811733
 H        -0.182781        -1.942616        -2.070042
 H         0.468605         0.694321        -2.482203
