19
Iteration:  2600
 C         0.318307         0.493067         0.526805
 C         1.149506        -0.126656        -0.638520
 O         2.017735        -1.268967        -0.340998
 C         2.624806        -0.097823        -0.839579
 C         2.458543        -0.206146        -2.381362
 C         3.001034        -1.383279        -3.321843
 O         2.023550        -2.344633        -3.088828
 C         0.744565        -1.865773        -2.718450
 C         0.844665        -0.438113        -2.162645
 H        -0.004102         1.575118         0.175009
 H        -0.458100        -0.135341         0.875480
 H         1.022538         0.374675         1.441003
 H         3.497349         0.278227        -0.263446
 H         2.690847         0.848513        -2.800623
 H         3.198518        -1.115645        -4.382031
 H         3.997985        -1.637064        -2.845274
 H         0.025145        -1.779835        -3.505634
 H         0.370455        -2.482093        -1.950287
 H         0.248705         0.252671        -2.668355
