19
Iteration:  2334charge 0 multiplicity 1
 C         0.428850         0.529952         0.407943
 C         1.049113        -0.289584        -0.716780
 O         2.039908        -1.363427        -0.353883
 C         2.569758        -0.224197        -0.936038
 C         2.442880        -0.090628        -2.400038
 C         2.881577        -1.218338        -3.283733
 O         2.073179        -2.406755        -2.883756
 C         0.751582        -1.868311        -2.626231
 C         0.922781        -0.321618        -2.192804
 H         0.607837         1.561790         0.272187
 H        -0.661935         0.290627         0.580803
 H         1.005920         0.306669         1.303654
 H         3.441038         0.415972        -0.302186
 H         2.814421         0.878611        -2.792421
 H         2.744042        -0.902856        -4.336986
 H         3.933861        -1.508541        -3.175297
 H         0.116012        -1.992713        -3.513526
 H         0.381869        -2.522806        -1.862996
 H         0.197178         0.445882        -2.620771
