19
Iteration:  3287
 C         0.203902         0.405073         0.323729
 C         1.247711        -0.254686        -0.657954
 O         2.138574        -1.403873        -0.120201
 C         2.687396        -0.198110        -0.724806
 C         2.551086        -0.169045        -2.307533
 C         2.880528        -1.402136        -3.182440
 O         1.828017        -2.300187        -3.213441
 C         0.668654        -1.602414        -2.806459
 C         1.071354        -0.286752        -2.220078
 H         0.513978         0.477754         1.320606
 H        -0.027159         1.436674        -0.090178
 H        -0.686283        -0.396042         0.185147
 H         3.528442         0.481425        -0.237315
 H         3.003163         0.757388        -2.803795
 H         3.179907        -1.205309        -4.257602
 H         3.749286        -2.109188        -2.825745
 H        -0.075202        -1.516456        -3.527979
 H         0.167239        -2.216791        -2.071404
 H         0.405368         0.515628        -2.666637
