19
Iteration:   221charge 0 multiplicity 1
 C         0.260890         0.328248         0.368506
 C         1.254268        -0.215473        -0.636282
 O         2.156891        -1.200404        -0.117093
 C         2.688888        -0.078406        -0.814135
 C         2.493310        -0.142822        -2.391139
 C         2.850920        -1.461767        -3.286160
 O         1.908018        -2.482398        -2.996224
 C         0.636023        -1.643991        -2.933529
 C         1.028359        -0.372722        -2.155445
 H        -0.805513         0.498199        -0.027103
 H         0.059523        -0.348070         1.090749
 H         0.696757         1.277855         0.845053
 H         3.625781         0.546828        -0.261908
 H         2.783030         0.819824        -2.859872
 H         2.609351        -1.106326        -4.291516
 H         3.812426        -1.781175        -3.142391
 H         0.278150        -1.275895        -3.860259
 H        -0.046995        -2.271245        -2.402715
 H         0.353032         0.467373        -2.313392
