19
Iteration:  1339
 C         0.329414         0.422857         0.414491
 C         1.200083        -0.210775        -0.590739
 O         2.218868        -1.169235        -0.047501
 C         2.664498         0.064408        -0.824272
 C         2.459158        -0.187173        -2.307522
 C         3.014519        -1.551241        -3.076786
 O         1.821198        -2.316978        -3.479972
 C         0.606583        -1.828040        -2.836249
 C         0.928277        -0.468465        -2.182778
 H        -0.291246         1.312763         0.104401
 H        -0.355794        -0.293126         0.696843
 H         0.956598         0.861006         1.260602
 H         3.452206         0.556810        -0.313724
 H         2.413067         0.728900        -2.966860
 H         3.639260        -1.343136        -3.957372
 H         3.675367        -2.083737        -2.425174
 H        -0.158272        -1.764094        -3.650318
 H         0.217579        -2.637721        -2.149392
 H         0.331767         0.412735        -2.542970
