19
Iteration:  4144charge 0 multiplicity 1
 C         0.331700         0.310808         0.373068
 C         1.256089        -0.301848        -0.633608
 O         1.931171        -1.503070        -0.187956
 C         2.670477        -0.400738        -0.607326
 C         2.666300        -0.299553        -2.211169
 C         2.899586        -1.717269        -2.709275
 O         1.788463        -1.995642        -3.607909
 C         0.616226        -1.254051        -3.109587
 C         1.160644        -0.087157        -2.219375
 H         0.943200         0.837473         1.246983
 H        -0.414322         0.958947        -0.037245
 H        -0.358086        -0.419510         0.709781
 H         3.145146         0.259778         0.202674
 H         3.429372         0.448489        -2.647241
 H         3.746344        -1.868445        -3.356419
 H         2.952305        -2.443129        -1.917219
 H         0.070336        -0.791270        -4.048301
 H        -0.112278        -2.012969        -2.655363
 H         0.816425         0.876729        -2.596294
