19
Iteration:  2683charge 0 multiplicity 1
 C         0.255950         0.357871         0.280572
 C         1.191711        -0.186861        -0.658567
 O         2.124541        -1.246783        -0.171945
 C         2.706205        -0.151173        -0.814657
 C         2.503038        -0.156226        -2.395121
 C         2.962514        -1.359380        -3.304698
 O         1.906184        -2.358822        -3.080739
 C         0.695765        -1.763248        -2.665370
 C         0.976274        -0.360619        -2.108874
 H        -0.170124         1.225773        -0.039582
 H        -0.611728        -0.346132         0.293065
 H         0.663053         0.643215         1.182644
 H         3.372801         0.347140        -0.240566
 H         2.701349         0.773983        -2.847996
 H         2.773849        -1.108739        -4.405403
 H         3.932405        -1.796683        -3.218788
 H        -0.015545        -1.653940        -3.593914
 H         0.178501        -2.494493        -1.907135
 H         0.144618         0.401567        -2.395860
