19
Iteration:   222charge 0 multiplicity 1
 C         0.250406         0.334638         0.372894
 C         1.251697        -0.213843        -0.629146
 O         2.161504        -1.200936        -0.104595
 C         2.689880        -0.079505        -0.817405
 C         2.490163        -0.141282        -2.399168
 C         2.840697        -1.459905        -3.286976
 O         1.904184        -2.481061        -3.000286
 C         0.641491        -1.646641        -2.935112
 C         1.039022        -0.371382        -2.162802
 H        -0.802434         0.500003        -0.023390
 H         0.078550        -0.371407         1.120653
 H         0.678063         1.259422         0.857313
 H         3.645511         0.526761        -0.257816
 H         2.784554         0.812313        -2.889836
 H         2.624306        -1.121480        -4.286722
 H         3.826722        -1.792211        -3.143424
 H         0.316287        -1.261588        -3.890069
 H        -0.042602        -2.283535        -2.403669
 H         0.355053         0.438932        -2.326728
