19
Iteration:   300charge 0 multiplicity 1
 C         0.260907         0.271180         0.415067
 C         1.179776        -0.218403        -0.695286
 O         2.216082        -1.251448        -0.415780
 C         2.650143        -0.001524        -0.939610
 C         2.474636        -0.213161        -2.462679
 C         3.016197        -1.497480        -2.862529
 O         1.836523        -2.281765        -3.156877
 C         0.632363        -1.676752        -2.682601
 C         0.908277        -0.308059        -2.192203
 H        -0.540576         0.984369         0.156661
 H        -0.026668        -0.619719         1.037206
 H         0.899477         0.716742         1.170818
 H         3.663065         0.315981        -0.338422
 H         2.608755         0.600569        -3.176034
 H         3.651910        -1.481920        -3.763436
 H         3.688376        -1.994090        -2.129216
 H        -0.014060        -1.647911        -3.517287
 H         0.160452        -2.358949        -1.902180
 H         0.546830         0.620195        -2.574375
