19
Iteration:   196
 C         0.287838         0.391524         0.374928
 C         1.216725        -0.257842        -0.668303
 O         2.172406        -1.350044        -0.313260
 C         2.643747        -0.087177        -0.861265
 C         2.536340        -0.152148        -2.414545
 C         2.913131        -1.393131        -3.142805
 O         1.864581        -2.286330        -2.945135
 C         0.636170        -1.741185        -2.745798
 C         1.002418        -0.352189        -2.246729
 H        -0.676417         0.716551        -0.017560
 H        -0.059138        -0.374258         1.118813
 H         0.818493         1.205801         0.892263
 H         3.371171         0.367597        -0.291934
 H         2.828147         0.733559        -2.974555
 H         3.003959        -1.069654        -4.222305
 H         3.808486        -1.902875        -2.734206
 H         0.042437        -1.596930        -3.667162
 H         0.048994        -2.404492        -2.086523
 H         0.340066         0.477256        -2.649270
