19
Iteration:   336
 C         0.249691         0.216003         0.429966
 C         1.206132        -0.118535        -0.702637
 O         2.214342        -1.137376        -0.231300
 C         2.701110         0.094054        -0.853138
 C         2.548679        -0.203229        -2.382033
 C         2.995225        -1.521614        -2.983024
 O         1.762113        -2.344936        -3.350852
 C         0.624088        -1.816011        -2.666246
 C         0.968415        -0.307153        -2.239256
 H        -0.123439         1.175284         0.457875
 H        -0.782606        -0.386725         0.326359
 H         0.858560         0.058397         1.262234
 H         3.421461         0.525977        -0.293115
 H         2.779481         0.563119        -3.121384
 H         3.522560        -1.440074        -3.875962
 H         3.478529        -2.098881        -2.100948
 H        -0.269971        -1.941213        -3.296700
 H         0.524949        -2.445589        -1.733773
 H         0.398669         0.463410        -2.789837
