19
Iteration:   675charge 0 multiplicity 1
 C         0.234618         0.398929         0.306120
 C         1.221703        -0.165643        -0.569135
 O         2.091603        -1.222116        -0.262758
 C         2.709472        -0.118772        -0.886920
 C         2.480923        -0.154027        -2.356647
 C         2.933426        -1.399414        -3.249762
 O         1.899141        -2.408611        -3.165656
 C         0.720025        -1.808249        -2.589712
 C         0.997203        -0.353422        -2.107979
 H        -0.272874         1.134420        -0.361752
 H        -0.486592        -0.385457         0.530877
 H         0.555004         0.727493         1.366119
 H         3.606567         0.348790        -0.450953
 H         2.734677         0.856777        -2.960725
 H         2.945711        -1.045518        -4.344764
 H         3.956881        -1.807660        -3.118209
 H        -0.194692        -1.554378        -3.182286
 H         0.379107        -2.602581        -1.842254
 H         0.309552         0.491700        -2.554482
