19
Iteration:  4255
 C         0.189165         0.505293         0.450293
 C         1.177446        -0.231029        -0.594996
 O         1.793684        -1.516548        -0.424002
 C         2.703601        -0.427351        -0.607796
 C         2.789209        -0.299969        -2.167191
 C         3.085009        -1.662406        -2.941738
 O         1.760407        -2.015761        -3.582196
 C         0.668877        -1.384201        -2.853112
 C         1.164286        -0.204928        -2.162300
 H         0.263034         0.318291         1.567668
 H         0.446913         1.581135         0.199447
 H        -0.780096         0.269343         0.120953
 H         3.301977        -0.233484         0.163287
 H         3.287578         0.653617        -2.474673
 H         3.864529        -1.629465        -3.689909
 H         3.405958        -2.321123        -2.120789
 H        -0.296489        -1.351121        -3.452604
 H         0.416066        -2.128607        -2.186200
 H         0.832654         0.681986        -2.752118
