19
Iteration:  4685
 C         0.181177         0.281614         0.295663
 C         1.210758        -0.220868        -0.656093
 O         1.755094        -1.475649        -0.264243
 C         2.681508        -0.408550        -0.611437
 C         2.846078        -0.365550        -2.156534
 C         3.002790        -1.600895        -3.008797
 O         1.716580        -2.112962        -3.336076
 C         0.677086        -1.219977        -3.000370
 C         1.275741        -0.078077        -2.146177
 H         0.586435         0.199925         1.392470
 H        -0.029023         1.302906        -0.057710
 H        -0.743309        -0.391155         0.059622
 H         3.516258        -0.208752         0.033934
 H         3.458528         0.398034        -2.465741
 H         3.491803        -1.594129        -4.024619
 H         3.576867        -2.365272        -2.408441
 H         0.217493        -0.832900        -3.871154
 H        -0.024220        -1.759952        -2.422604
 H         0.837173         0.885847        -2.454668
