19
Iteration:  4077
 C         0.261426         0.438525         0.263973
 C         1.235102        -0.227472        -0.580957
 O         1.727676        -1.434102        -0.120970
 C         2.723604        -0.511729        -0.568546
 C         2.743302        -0.421181        -2.120791
 C         2.934148        -1.622683        -3.014081
 O         1.737025        -1.795216        -3.786334
 C         0.738247        -1.518898        -2.802006
 C         1.231713        -0.229044        -2.158157
 H         0.699843         0.603467         1.313294
 H         0.028347         1.381709        -0.199854
 H        -0.747811         0.042370         0.255015
 H         3.501846        -0.013632         0.159915
 H         3.315558         0.503245        -2.463937
 H         3.777289        -1.436509        -3.641632
 H         3.138264        -2.449897        -2.359224
 H        -0.187972        -1.237004        -3.415265
 H         0.792172        -2.404921        -2.069060
 H         0.771668         0.664423        -2.537989
