19
Iteration:  1285
 C         0.317320         0.350307         0.348866
 C         1.226030        -0.186003        -0.705618
 O         2.000562        -1.343732        -0.394315
 C         2.685406        -0.165827        -0.861762
 C         2.537916        -0.068469        -2.377794
 C         2.874799        -1.386622        -3.162188
 O         1.915695        -2.350354        -3.102593
 C         0.717783        -1.765839        -2.503269
 C         0.999832        -0.300534        -2.195532
 H        -0.188176         1.283617        -0.237927
 H        -0.427623        -0.326917         0.738941
 H         0.896840         0.803793         1.295000
 H         3.378488         0.319410        -0.221110
 H         2.778642         0.834008        -2.973588
 H         3.071866        -1.077298        -4.243159
 H         3.783530        -1.775114        -2.662289
 H        -0.063845        -1.906608        -3.273913
 H         0.502411        -2.345488        -1.630957
 H         0.248149         0.435118        -2.583318
