19
Iteration:   971charge 0 multiplicity 1
 C         0.214365         0.292527         0.363826
 C         1.289120        -0.120338        -0.573008
 O         2.191106        -1.160242        -0.250690
 C         2.717317        -0.055252        -0.928215
 C         2.532680        -0.188142        -2.461888
 C         2.968612        -1.427588        -3.102250
 O         1.788416        -2.381054        -3.332277
 C         0.636519        -1.795648        -2.543330
 C         0.948959        -0.367102        -2.094150
 H        -0.181398         1.268349        -0.011434
 H        -0.649914        -0.415484         0.172713
 H         0.500309         0.491689         1.441472
 H         3.387948         0.478580        -0.361981
 H         2.735926         0.717364        -3.056491
 H         3.414555        -1.199640        -4.085164
 H         3.787985        -1.901463        -2.610640
 H        -0.226123        -2.042856        -3.177088
 H         0.472286        -2.424758        -1.680035
 H         0.348327         0.498482        -2.467097
