19
Iteration:  3001
 C         0.203086         0.431926         0.263040
 C         1.235889        -0.276993        -0.574092
 O         2.177590        -1.110073        -0.076756
 C         2.589533         0.068776        -0.774107
 C         2.567254        -0.246710        -2.316912
 C         2.975219        -1.645451        -3.175011
 O         1.718737        -2.040080        -3.662118
 C         0.733680        -1.918776        -2.575450
 C         1.065514        -0.550376        -2.029832
 H         0.184683         1.460328         0.014427
 H        -0.784203        -0.091211         0.159209
 H         0.541470         0.380027         1.420064
 H         3.239178         0.817021        -0.243775
 H         2.860723         0.643194        -2.899534
 H         3.639096        -1.458744        -3.991033
 H         3.396894        -2.439729        -2.498519
 H        -0.250444        -1.956144        -2.913558
 H         0.862626        -2.709236        -1.799758
 H         0.474501         0.288806        -2.475148
