19
Iteration:  4341charge 0 multiplicity 1
 C         0.311720         0.551465         0.225217
 C         1.223644        -0.217797        -0.618180
 O         1.777822        -1.537311        -0.003798
 C         2.687453        -0.429204        -0.531530
 C         2.717993        -0.430912        -2.128557
 C         2.941503        -1.696761        -2.969344
 O         1.849098        -1.680361        -3.800605
 C         0.663930        -1.597447        -2.952825
 C         1.126017        -0.251403        -2.119895
 H         0.751598         1.011301         1.134244
 H        -0.141877         1.347833        -0.368351
 H        -0.487756         0.029600         0.607250
 H         3.430115        -0.161702         0.084692
 H         3.407272         0.441574        -2.349099
 H         3.805428        -1.635336        -3.636386
 H         3.035888        -2.656854        -2.336154
 H        -0.298160        -1.346345        -3.529864
 H         0.667564        -2.421614        -2.255773
 H         0.671166         0.616547        -2.577705
