19
Iteration:  2341
 C         0.388190         0.503303         0.351726
 C         1.156642        -0.263297        -0.662961
 O         2.022122        -1.380004        -0.397260
 C         2.605450        -0.179744        -0.914497
 C         2.471317        -0.058939        -2.406392
 C         2.879527        -1.213823        -3.284204
 O         2.070334        -2.380772        -2.893531
 C         0.698340        -1.874443        -2.563671
 C         0.917933        -0.356229        -2.170886
 H         0.569560         1.581221         0.175858
 H        -0.736036         0.320431         0.617222
 H         0.860685         0.115202         1.248737
 H         3.268335         0.279668        -0.194045
 H         2.888384         0.815476        -2.874407
 H         2.682787        -1.108989        -4.416815
 H         3.935095        -1.492922        -3.120291
 H         0.097027        -1.848068        -3.591095
 H         0.306483        -2.548517        -1.805754
 H         0.191076         0.238510        -2.796695
