19
Iteration:   877
 C         0.369408         0.058557         0.475596
 C         1.204285        -0.300464        -0.674107
 O         2.332200        -1.127043        -0.342210
 C         2.597163         0.165640        -0.928194
 C         2.479748        -0.133532        -2.518970
 C         2.859138        -1.558749        -2.942245
 O         1.755163        -2.429125        -2.814543
 C         0.636403        -1.560776        -3.041500
 C         0.962014        -0.323779        -2.201294
 H        -0.417118         0.656016         0.188322
 H        -0.102353        -0.820086         0.956038
 H         0.973004         0.582008         1.086635
 H         3.566565         0.635931        -0.346281
 H         2.751358         0.634853        -3.196155
 H         3.371878        -1.578488        -3.885999
 H         3.731314        -1.861525        -2.308940
 H         0.343759        -1.261929        -4.122316
 H        -0.365045        -1.945924        -2.662483
 H         0.400983         0.564923        -2.450850
