19
Iteration:  3808charge 0 multiplicity 1
 C         0.310812         0.561417         0.483209
 C         1.196407        -0.221814        -0.565485
 O         1.801781        -1.443423        -0.178776
 C         2.718338        -0.294098        -0.619568
 C         2.650828        -0.358538        -2.239627
 C         3.033993        -1.584625        -3.081685
 O         1.832108        -2.003758        -3.715930
 C         0.705474        -1.578368        -2.835851
 C         1.038200        -0.323316        -2.136573
 H         0.345858         1.680254         0.214628
 H        -0.705058         0.141872         0.578478
 H         0.823205         0.633253         1.392284
 H         3.492274        -0.252175         0.089465
 H         3.053272         0.567532        -2.637867
 H         3.744644        -1.428563        -3.889539
 H         3.430420        -2.346243        -2.446344
 H        -0.157345        -1.455645        -3.525881
 H         0.530656        -2.444338        -2.078383
 H         0.389654         0.522411        -2.676619
