19
Iteration:   145
 C         0.305846         0.317359         0.466007
 C         1.192758        -0.113735        -0.697808
 O         2.065233        -1.214729        -0.332181
 C         2.664620        -0.060374        -0.889535
 C         2.568690        -0.125640        -2.403323
 C         3.004632        -1.439617        -3.094105
 O         1.840050        -2.378543        -3.122267
 C         0.630614        -1.806932        -2.691845
 C         0.986205        -0.367074        -2.255956
 H        -0.224773         1.334681         0.518090
 H        -0.430516        -0.377663         0.626040
 H         1.055689         0.291361         1.316917
 H         3.475093         0.545748        -0.180017
 H         2.706076         0.841285        -2.917380
 H         3.419148        -1.301321        -4.089350
 H         3.692231        -1.934071        -2.441462
 H        -0.218772        -1.948965        -3.433024
 H         0.283790        -2.342643        -1.809687
 H         0.464713         0.406024        -2.754392
