19
Iteration:  1021
 C         0.401228         0.605650         0.404099
 C         1.193533        -0.198449        -0.590404
 O         2.057097        -1.228623        -0.128634
 C         2.610299        -0.015988        -0.874948
 C         2.395526        -0.205957        -2.374977
 C         2.939410        -1.486313        -3.160990
 O         1.843349        -2.212886        -3.591712
 C         0.875246        -1.999965        -2.526759
 C         0.872443        -0.509727        -2.089323
 H         0.440156         1.728775         0.185440
 H        -0.631118         0.303702         0.407125
 H         0.820265         0.376756         1.437659
 H         3.444964         0.589771        -0.424519
 H         2.723128         0.753423        -2.879719
 H         3.552997        -1.258816        -4.096327
 H         3.692680        -2.041851        -2.487438
 H        -0.082232        -2.360250        -3.092028
 H         1.044824        -2.662314        -1.642518
 H         0.076426         0.235048        -2.560758
