19
Iteration:  2746charge 0 multiplicity 1
 C         0.315609         0.169316         0.458780
 C         1.257220        -0.235665        -0.654818
 O         2.178673        -1.248978        -0.408695
 C         2.680961         0.013742        -0.978416
 C         2.424155        -0.109430        -2.494821
 C         2.992852        -1.475915        -2.968221
 O         1.846290        -2.343258        -2.835335
 C         0.626111        -1.651196        -2.875886
 C         0.947679        -0.312853        -2.213837
 H        -0.026917         1.286687         0.313729
 H        -0.670010        -0.359352         0.233723
 H         0.638014        -0.128559         1.419396
 H         3.450969         0.391473        -0.414992
 H         2.637374         0.791486        -3.040670
 H         3.205260        -1.337813        -4.014991
 H         3.843752        -1.852396        -2.441682
 H         0.219218        -1.487482        -3.835243
 H        -0.088174        -2.298573        -2.277350
 H         0.409663         0.563856        -2.531856
