19
Iteration:   798
 C         0.170547         0.358879         0.324596
 C         1.216555        -0.224554        -0.651610
 O         2.194728        -1.245793        -0.324259
 C         2.757641        -0.070042        -0.873190
 C         2.479842        -0.165430        -2.423210
 C         2.884230        -1.394040        -3.247751
 O         1.908481        -2.330637        -3.028813
 C         0.665276        -1.835030        -2.570677
 C         0.984368        -0.338000        -2.155005
 H         0.133574         1.374078         0.172243
 H        -0.801429        -0.096430         0.233568
 H         0.526425         0.194283         1.310324
 H         3.528117         0.451680        -0.300958
 H         2.670065         0.818627        -2.917843
 H         2.844632        -0.990125        -4.200040
 H         3.827717        -1.841730        -2.944216
 H        -0.019170        -1.851997        -3.457698
 H         0.292362        -2.346161        -1.657478
 H         0.401129         0.395264        -2.650494
