19
Iteration:  4519charge 0 multiplicity 1
 C         0.207786         0.490364         0.244409
 C         1.235366        -0.273375        -0.544160
 O         1.700878        -1.605839        -0.298104
 C         2.648566        -0.510964        -0.594380
 C         2.823907        -0.333116        -2.134011
 C         3.039574        -1.473082        -3.187078
 O         1.725457        -2.276893        -3.228073
 C         0.714509        -1.215405        -3.022040
 C         1.275357        -0.083422        -2.071761
 H         0.597607         0.819909         1.140955
 H        -0.304662         1.417994        -0.182187
 H        -0.611724        -0.190802         0.474261
 H         3.558897        -0.509170         0.174689
 H         3.393085         0.573813        -2.466938
 H         3.033222        -0.860742        -4.059143
 H         3.979692        -2.032482        -2.979816
 H         0.567824        -0.716405        -4.123596
 H        -0.221907        -1.634913        -2.570317
 H         0.782388         0.894323        -2.502502
