19
Iteration:  2525charge 0 multiplicity 1
 C         0.160991         0.091992         0.340298
 C         1.294191        -0.210329        -0.623895
 O         2.264150        -1.172191        -0.300323
 C         2.779403         0.078134        -0.868476
 C         2.452597        -0.122006        -2.445881
 C         2.874459        -1.498622        -3.162002
 O         1.838824        -2.430051        -2.863079
 C         0.657432        -1.714362        -2.836924
 C         0.954193        -0.243735        -2.174289
 H        -0.133316         1.197576         0.041510
 H        -0.591650        -0.590001         0.177112
 H         0.413680         0.223348         1.448592
 H         3.537549         0.637798        -0.131073
 H         2.814352         0.669199        -3.167982
 H         2.869688        -1.152218        -4.234637
 H         3.875462        -1.973525        -2.931208
 H         0.305794        -1.403735        -3.900320
 H        -0.194307        -2.263310        -2.193227
 H         0.333467         0.584752        -2.454834
