19
Iteration:   945
 C         0.249688         0.157931         0.369772
 C         1.262004        -0.173578        -0.643291
 O         2.297550        -1.104991        -0.209959
 C         2.666879         0.067528        -0.889942
 C         2.563063        -0.212865        -2.432538
 C         2.881549        -1.552115        -3.075726
 O         1.776939        -2.313776        -3.174129
 C         0.574576        -1.709141        -2.719487
 C         0.991070        -0.379099        -2.175915
 H        -0.489311         0.958006         0.055099
 H        -0.285146        -0.688706         0.628354
 H         0.838204         0.665348         1.167446
 H         3.364869         0.740258        -0.300419
 H         2.856395         0.659069        -3.048588
 H         3.432630        -1.351489        -4.044633
 H         3.642892        -2.113599        -2.488829
 H        -0.170306        -1.728555        -3.682686
 H         0.048480        -2.445581        -2.064645
 H         0.258700         0.496406        -2.495523
