19
Iteration:  1268charge 0 multiplicity 1
 C         0.284344         0.370946         0.317240
 C         1.247121        -0.173262        -0.636542
 O         2.038241        -1.348972        -0.348139
 C         2.696338        -0.140141        -0.882493
 C         2.510136        -0.134180        -2.437006
 C         3.018910        -1.309780        -3.266639
 O         1.892379        -2.387972        -2.969901
 C         0.631237        -1.742427        -2.580094
 C         0.950874        -0.311192        -2.156955
 H        -0.142232         1.276600         0.091195
 H        -0.521145        -0.427629         0.324547
 H         0.704368         0.470133         1.221514
 H         3.646772         0.216294        -0.266248
 H         2.813204         0.886795        -2.694144
 H         3.036086        -1.037650        -4.319596
 H         3.997667        -1.774938        -3.009768
 H        -0.120466        -1.801668        -3.402197
 H         0.197633        -2.327673        -1.720698
 H         0.380241         0.456082        -2.649401
