19
Iteration:   656charge 0 multiplicity 1
 C         0.206706         0.288395         0.327698
 C         1.257773        -0.140403        -0.666477
 O         2.139558        -1.216209        -0.237877
 C         2.755726        -0.036086        -0.868385
 C         2.555624        -0.171091        -2.427594
 C         2.903543        -1.406693        -3.236794
 O         1.872243        -2.363861        -3.053597
 C         0.619561        -1.739529        -2.620221
 C         0.985901        -0.356778        -2.183107
 H        -0.265808         1.224806         0.248771
 H        -0.611141        -0.665661         0.226583
 H         0.574854         0.132245         1.412285
 H         3.464341         0.479910        -0.294959
 H         2.773917         0.691049        -3.053282
 H         3.133130        -1.238159        -4.368066
 H         3.788788        -1.932928        -2.790593
 H        -0.106279        -1.875800        -3.426048
 H         0.287790        -2.244541        -1.725858
 H         0.308888         0.330868        -2.689350
