19
Iteration:  2304
 C         0.436142         0.537006         0.492918
 C         1.171502        -0.194216        -0.608220
 O         1.915309        -1.307213        -0.202152
 C         2.671055        -0.139112        -0.931457
 C         2.426606        -0.129366        -2.474007
 C         2.939125        -1.251426        -3.315598
 O         2.062174        -2.401299        -2.983943
 C         0.717842        -1.926289        -2.799981
 C         0.874715        -0.440626        -2.143256
 H         0.072652         1.654735         0.251895
 H        -0.413795        -0.020461         0.741348
 H         1.155820         0.662018         1.381343
 H         3.482747         0.286494        -0.422023
 H         2.672358         0.905734        -2.854150
 H         3.006965        -0.904597        -4.350925
 H         3.934718        -1.552099        -2.960810
 H         0.238191        -1.715025        -3.745692
 H         0.105359        -2.865230        -2.367584
 H         0.208361         0.272682        -2.558760
