19
Iteration:   180charge 0 multiplicity 1
 C         0.275716         0.362526         0.423329
 C         1.190526        -0.194153        -0.652614
 O         2.105710        -1.352383        -0.391650
 C         2.683481        -0.174826        -0.936575
 C         2.465099        -0.049386        -2.468926
 C         3.008199        -1.406057        -3.103596
 O         1.918587        -2.449573        -3.008194
 C         0.631404        -1.668832        -2.684403
 C         0.924194        -0.241431        -2.183334
 H        -0.523449         0.910781        -0.123618
 H        -0.093257        -0.409834         1.137041
 H         0.854257         1.057090         1.047701
 H         3.543551         0.359502        -0.309745
 H         2.769952         0.952269        -2.847871
 H         3.417557        -1.473745        -4.121093
 H         3.863223        -1.752071        -2.428239
 H        -0.017286        -1.865187        -3.615162
 H         0.316934        -2.142319        -1.747752
 H         0.284316         0.523001        -2.550951
