19
Iteration:  4108charge 0 multiplicity 1
 C         0.239136         0.406633         0.470970
 C         1.190426        -0.142356        -0.564448
 O         1.814050        -1.458219        -0.218485
 C         2.669859        -0.408717        -0.617374
 C         2.747869        -0.444646        -2.189657
 C         2.957269        -1.752492        -2.903367
 O         1.824886        -1.878068        -3.723832
 C         0.662821        -1.416427        -2.972501
 C         1.206480        -0.182316        -2.189341
 H         0.691544         0.851819         1.329841
 H        -0.287882         1.214176        -0.041631
 H        -0.361830        -0.435634         0.930662
 H         3.311861         0.125842         0.200234
 H         3.329588         0.367954        -2.636482
 H         3.803195        -1.704530        -3.625938
 H         3.133479        -2.584219        -2.126936
 H        -0.078294        -0.866946        -3.655652
 H         0.206162        -2.204512        -2.412221
 H         0.883632         0.774074        -2.541745
