19
Iteration:  4799
 C         0.184704         0.405018         0.231560
 C         1.230001        -0.288120        -0.588790
 O         1.741233        -1.561082        -0.133393
 C         2.668496        -0.540798        -0.582011
 C         2.776271        -0.340049        -2.132904
 C         3.014960        -1.527359        -3.198281
 O         1.758940        -2.134717        -3.208533
 C         0.702739        -1.215678        -3.081437
 C         1.256558        -0.083686        -2.194873
 H         0.301467         0.141265         1.309328
 H         0.188395         1.583438         0.192751
 H        -0.820635         0.034836        -0.032746
 H         3.579911        -0.326773         0.036537
 H         3.482542         0.546397        -2.391041
 H         3.177291        -1.033144        -4.221535
 H         3.808052        -2.255518        -2.925601
 H         0.451925        -0.769805        -4.048690
 H        -0.163041        -1.790329        -2.706473
 H         0.923156         0.947847        -2.399182
