19
Iteration:  2000charge 0 multiplicity 1
 C         0.307329         0.457325         0.444240
 C         1.201640        -0.190878        -0.548173
 O         2.125476        -1.228707        -0.217720
 C         2.633122        -0.078808        -0.862381
 C         2.417215        -0.170525        -2.400915
 C         2.964285        -1.394363        -3.284928
 O         1.960222        -2.412484        -3.113787
 C         0.689946        -1.805905        -2.809867
 C         0.931536        -0.456072        -2.096090
 H         0.264296         1.539394         0.139727
 H        -0.670109         0.148603         0.301422
 H         0.642041         0.487501         1.556141
 H         3.435173         0.349326        -0.252484
 H         2.398670         0.781555        -3.026489
 H         3.113805        -0.998243        -4.328416
 H         3.916989        -1.773360        -2.849574
 H         0.273625        -1.595639        -3.847568
 H         0.048122        -2.533705        -2.402361
 H         0.418289         0.384542        -2.506865
