19
Iteration:  2620
 C         0.448402         0.505603         0.470184
 C         1.143316        -0.238429        -0.630278
 O         1.957018        -1.301957        -0.178963
 C         2.565629        -0.127641        -0.871178
 C         2.447873        -0.139969        -2.429740
 C         2.983167        -1.273766        -3.202750
 O         2.016276        -2.401608        -3.163168
 C         0.716534        -1.901276        -2.724270
 C         0.934898        -0.388351        -2.239967
 H         0.009684         1.415379        -0.006915
 H        -0.293716        -0.145519         1.061012
 H         1.204072         0.816683         1.330036
 H         3.239903         0.486630        -0.421153
 H         2.674026         0.865934        -2.887516
 H         3.049451        -0.897721        -4.211161
 H         4.030431        -1.587683        -2.941272
 H         0.047969        -1.926731        -3.577671
 H         0.362578        -2.489765        -1.943306
 H         0.171731         0.344466        -2.617117
