19
Iteration:  2419charge 0 multiplicity 1
 C         0.261017         0.228071         0.401823
 C         1.202894        -0.224680        -0.688809
 O         2.296882        -1.146112        -0.160222
 C         2.665184         0.063264        -0.862812
 C         2.560712        -0.177525        -2.372215
 C         2.919734        -1.469907        -3.112407
 O         1.830929        -2.431013        -3.149348
 C         0.569512        -1.683790        -2.798180
 C         1.001055        -0.399626        -2.174828
 H        -0.480762         0.865131        -0.057311
 H        -0.576530        -0.626178         0.791500
 H         0.700035         0.717044         1.227668
 H         3.399833         0.861625        -0.333453
 H         2.802306         0.628316        -3.043103
 H         3.048319        -1.121673        -4.170185
 H         3.835252        -2.007114        -2.836470
 H        -0.104287        -1.377233        -3.774054
 H        -0.091682        -2.287388        -2.237757
 H         0.222444         0.418063        -2.543893
