19
Iteration:  4317charge 0 multiplicity 1
 C         0.282084         0.652172         0.423877
 C         1.117264        -0.197166        -0.486467
 O         1.756580        -1.495437        -0.142803
 C         2.627501        -0.438847        -0.557129
 C         2.703691        -0.444067        -2.194919
 C         3.008665        -1.666341        -2.954731
 O         1.861202        -1.823374        -3.859889
 C         0.745706        -1.553287        -3.036627
 C         1.170299        -0.363491        -2.064611
 H         0.860532         1.021020         1.364989
 H        -0.000263         1.481898        -0.120662
 H        -0.648449         0.334079         0.877057
 H         3.336821        -0.089045         0.208526
 H         3.316779         0.408028        -2.590833
 H         3.747596        -1.419204        -3.721211
 H         3.225158        -2.683180        -2.565531
 H        -0.188336        -1.129794        -3.476519
 H         0.670968        -2.373391        -2.214958
 H         0.868658         0.552745        -2.515740
