19
Iteration:   592
 C         0.294621         0.137706         0.450213
 C         1.246863        -0.318536        -0.680400
 O         2.388405        -1.200408        -0.315122
 C         2.655095         0.076480        -0.975028
 C         2.437495        -0.120736        -2.507538
 C         2.886311        -1.489959        -2.914671
 O         1.808920        -2.439173        -2.750952
 C         0.610546        -1.576950        -3.024057
 C         0.853898        -0.283026        -2.288526
 H         0.172680         1.201843         0.550191
 H        -0.660325        -0.321528         0.319878
 H         0.832300        -0.063469         1.372474
 H         3.421106         0.705107        -0.612659
 H         2.788189         0.638220        -3.139898
 H         3.212631        -1.443469        -3.898905
 H         3.659194        -1.780626        -2.194393
 H         0.486898        -1.291859        -4.134853
 H        -0.183033        -2.194654        -2.628725
 H         0.248873         0.549817        -2.512201
