19
Iteration:  1484charge 0 multiplicity 1
 C         0.352999         0.492173         0.406484
 C         1.201168        -0.277110        -0.599417
 O         2.027545        -1.374249        -0.289894
 C         2.675528        -0.084277        -0.886876
 C         2.461698        -0.163166        -2.416422
 C         2.922189        -1.338697        -3.188528
 O         1.986232        -2.348792        -3.061362
 C         0.696564        -1.766458        -2.711332
 C         0.921715        -0.378801        -2.156946
 H        -0.053436         1.415621        -0.230192
 H        -0.516197        -0.043350         0.724680
 H         0.922618         0.843053         1.201830
 H         3.584133         0.233760        -0.345641
 H         2.570284         0.855515        -2.945701
 H         3.122160        -1.031747        -4.251200
 H         3.776971        -1.777865        -2.638780
 H         0.164788        -1.599712        -3.726244
 H         0.109062        -2.573096        -2.064177
 H         0.267977         0.302675        -2.688038
