19
Iteration:  4052
 C         0.238667         0.656774         0.259161
 C         1.192852        -0.248346        -0.497819
 O         1.835198        -1.564842        -0.186521
 C         2.666719        -0.451755        -0.547603
 C         2.756713        -0.415625        -2.050875
 C         3.076174        -1.647919        -3.126465
 O         1.705561        -1.769368        -3.762739
 C         0.708526        -1.576990        -2.801121
 C         1.154635        -0.287883        -2.099884
 H         0.254509         0.454976         1.202435
 H         0.314758         1.767878         0.099190
 H        -0.814458         0.600338        -0.235277
 H         3.458762        -0.297722         0.104387
 H         3.122388         0.493717        -2.373106
 H         3.825215        -1.344950        -3.934001
 H         3.495506        -2.539859        -2.534337
 H        -0.242622        -1.443612        -3.335760
 H         0.655789        -2.432504        -2.181531
 H         0.684997         0.621232        -2.486538
