19
Iteration:  4539charge 0 multiplicity 1
 C         0.308346         0.411487         0.308620
 C         1.250207        -0.243762        -0.661186
 O         1.657663        -1.561171        -0.350464
 C         2.679998        -0.665538        -0.609044
 C         2.754486        -0.291305        -2.116327
 C         2.952561        -1.446106        -3.136324
 O         1.798740        -2.152383        -3.084899
 C         0.722294        -1.269815        -3.050862
 C         1.201715        -0.090026        -2.177073
 H         0.624287         0.889942         1.204737
 H        -0.098440         1.350682        -0.341254
 H        -0.591133        -0.156690         0.471736
 H         3.525218        -0.420969         0.161757
 H         3.372181         0.670233        -2.317278
 H         3.167961        -1.043318        -4.147267
 H         3.715995        -2.095560        -2.711371
 H         0.549120        -0.864929        -4.029753
 H        -0.172816        -1.919395        -2.745255
 H         1.103922         1.002413        -2.495245
