19
Iteration:  1410charge 0 multiplicity 1
 C         0.180484         0.192452         0.373273
 C         1.216768        -0.068021        -0.653485
 O         2.239664        -1.077471        -0.133382
 C         2.731125         0.068874        -0.894183
 C         2.523709        -0.260731        -2.391965
 C         2.927261        -1.681815        -2.919377
 O         1.735839        -2.089112        -3.570571
 C         0.653212        -1.815544        -2.615691
 C         1.042751        -0.454521        -2.164759
 H        -0.327728         1.193478         0.233506
 H        -0.647992        -0.632819         0.348306
 H         0.723270         0.426709         1.271600
 H         3.566273         0.578569        -0.450802
 H         2.835095         0.519849        -2.978815
 H         3.771650        -1.823754        -3.607382
 H         3.182879        -2.338311        -2.042369
 H        -0.282362        -1.995774        -3.095639
 H         0.735639        -2.442617        -1.774459
 H         0.481428         0.300108        -2.687041
