19
Iteration:   974charge 0 multiplicity 1
 C         0.224059         0.324654         0.350626
 C         1.298169        -0.120094        -0.560097
 O         2.169295        -1.174438        -0.269661
 C         2.692114        -0.050082        -0.936569
 C         2.536519        -0.195923        -2.451476
 C         2.952939        -1.446380        -3.132392
 O         1.804333        -2.350201        -3.327859
 C         0.634235        -1.822503        -2.527086
 C         0.953046        -0.356797        -2.090767
 H        -0.085484         1.270604         0.013001
 H        -0.719161        -0.420454         0.184066
 H         0.493278         0.402414         1.364917
 H         3.484656         0.559395        -0.263976
 H         2.737411         0.702687        -3.009778
 H         3.444123        -1.114921        -4.037900
 H         3.810026        -1.948882        -2.580496
 H        -0.182248        -1.996104        -3.096320
 H         0.594260        -2.542583        -1.668847
 H         0.303120         0.360216        -2.405157
