19
Iteration:  2064
 C         0.287180         0.454926         0.430194
 C         1.206771        -0.078616        -0.619482
 O         1.998206        -1.361463        -0.364916
 C         2.674799        -0.255070        -0.930133
 C         2.529009        -0.151814        -2.448475
 C         2.904154        -1.288896        -3.237870
 O         2.032753        -2.369320        -3.011617
 C         0.730854        -1.859760        -2.628068
 C         0.920956        -0.280009        -2.128374
 H        -0.572247         1.024136        -0.212149
 H        -0.392557        -0.266694         0.768785
 H         0.669391         1.065566         1.349430
 H         3.612570         0.012313        -0.417937
 H         2.742943         0.942347        -2.709096
 H         2.789171        -1.146246        -4.274882
 H         3.917761        -1.720264        -3.088350
 H         0.124519        -1.842609        -3.524433
 H         0.287182        -2.461717        -1.825586
 H         0.236386         0.460558        -2.518726
