19
Iteration:  2672
 C         0.189668         0.503755         0.313069
 C         1.229193        -0.232816        -0.573169
 O         2.118200        -1.298364        -0.201731
 C         2.721146        -0.148611        -0.810121
 C         2.462573        -0.127294        -2.397161
 C         2.855672        -1.356284        -3.316121
 O         1.964488        -2.392571        -3.128469
 C         0.743879        -1.766703        -2.691521
 C         0.997446        -0.414233        -2.102075
 H        -0.216591         1.227629        -0.247356
 H        -0.592971        -0.242826         0.649206
 H         0.621937         0.742427         1.217519
 H         3.538659         0.248112        -0.360932
 H         2.478752         0.845279        -2.783466
 H         3.016216        -0.976504        -4.378861
 H         3.786166        -1.731011        -2.961035
 H         0.041447        -1.621629        -3.604654
 H         0.226429        -2.469645        -1.935286
 H         0.339144         0.401406        -2.606095
