19
Iteration:  2480
 C         0.333648         0.083013         0.514497
 C         1.193101        -0.259678        -0.682750
 O         2.290477        -1.150286        -0.358210
 C         2.605051         0.117601        -0.872510
 C         2.518715        -0.130549        -2.473667
 C         2.912179        -1.576947        -2.932821
 O         1.842145        -2.409359        -2.957634
 C         0.560955        -1.618765        -2.955745
 C         0.947036        -0.279943        -2.281366
 H        -0.453988         0.829048         0.053600
 H        -0.025386        -0.719370         0.984818
 H         0.976025         0.634487         1.340931
 H         3.193428         0.829831        -0.327355
 H         2.724796         0.764225        -3.142083
 H         3.502626        -1.564661        -3.894797
 H         3.643747        -1.884954        -2.102289
 H         0.136998        -1.372111        -4.004070
 H        -0.154834        -2.250864        -2.261975
 H         0.439050         0.540280        -2.607476
