19
Iteration:  4236charge 0 multiplicity 1
 C         0.174708         0.400447         0.269317
 C         1.262294        -0.226058        -0.611581
 O         1.851326        -1.535586        -0.368287
 C         2.688987        -0.382737        -0.624858
 C         2.750701        -0.314554        -2.153935
 C         2.954993        -1.649972        -2.908507
 O         1.754624        -2.013749        -3.512024
 C         0.660981        -1.418258        -2.845197
 C         1.215945        -0.076522        -2.118041
 H         0.367814        -0.065476         1.185442
 H         0.317669         1.518178         0.399055
 H        -0.843252         0.166828        -0.196948
 H         3.552686        -0.260723         0.024216
 H         3.401024         0.440414        -2.537881
 H         3.709110        -1.458010        -3.685025
 H         3.298141        -2.454714        -2.301484
 H        -0.119754        -1.130196        -3.519309
 H         0.096046        -1.981714        -1.991964
 H         0.961466         0.896104        -2.617487
