19
Iteration:  4900
 C         0.234185         0.390595         0.469392
 C         1.160690        -0.221028        -0.657671
 O         1.776242        -1.554578        -0.319110
 C         2.590824        -0.415264        -0.649017
 C         2.800102        -0.304703        -2.101565
 C         3.092794        -1.625019        -2.946885
 O         1.742919        -2.184774        -3.413380
 C         0.691056        -1.216562        -3.115679
 C         1.221376        -0.126840        -2.177047
 H         0.829290         0.465289         1.360705
 H         0.066328         1.584892         0.228257
 H        -0.743528         0.009828         0.667877
 H         3.296552        -0.222508         0.086766
 H         3.349355         0.610222        -2.565792
 H         3.758305        -1.576533        -3.745752
 H         3.488671        -2.425230        -2.340106
 H         0.314200        -0.696681        -4.001570
 H        -0.145424        -1.694872        -2.567834
 H         0.922765         0.858968        -2.497895
