19
Iteration:  2479
 C         0.336883         0.089480         0.511532
 C         1.186265        -0.250870        -0.686518
 O         2.296907        -1.156434        -0.369170
 C         2.609188         0.125157        -0.863277
 C         2.518107        -0.129674        -2.466054
 C         2.908391        -1.577180        -2.935869
 O         1.844066        -2.411824        -2.960011
 C         0.556546        -1.625582        -2.955154
 C         0.949142        -0.288207        -2.272820
 H        -0.452527         0.825949         0.081999
 H        -0.032492        -0.753484         0.962064
 H         0.970903         0.690822         1.327753
 H         3.152513         0.789885        -0.348390
 H         2.720700         0.764839        -3.128834
 H         3.550799        -1.567988        -3.879642
 H         3.596846        -1.864630        -2.071487
 H         0.130537        -1.334372        -4.019724
 H        -0.145140        -2.220789        -2.290568
 H         0.431200         0.512410        -2.575210
