19
Iteration:  1079charge 0 multiplicity 1
 C         0.280755         0.513913         0.319512
 C         1.224982        -0.292961        -0.545084
 O         2.227979        -1.104546        -0.007158
 C         2.653963         0.028500        -0.847148
 C         2.462621        -0.294204        -2.403588
 C         2.973056        -1.582793        -3.051162
 O         1.754872        -2.085966        -3.732339
 C         0.671518        -1.940573        -2.564421
 C         0.999854        -0.567035        -2.087323
 H        -0.321713         1.149442        -0.389922
 H        -0.409149        -0.111214         0.824986
 H         0.785003         1.178876         1.080569
 H         3.286967         0.775210        -0.453272
 H         2.658415         0.659197        -2.935918
 H         3.741609        -1.401454        -3.821214
 H         3.331721        -2.161738        -2.149817
 H        -0.300974        -2.176947        -3.165171
 H         0.908689        -2.722121        -1.794162
 H         0.342972         0.356468        -2.451363
