19
Iteration:  2063charge 0 multiplicity 1
 C         0.289267         0.464443         0.428441
 C         1.202640        -0.083353        -0.617100
 O         1.994623        -1.359106        -0.369006
 C         2.664800        -0.259361        -0.939280
 C         2.534904        -0.150489        -2.454257
 C         2.902228        -1.289015        -3.228814
 O         2.035267        -2.365801        -3.015146
 C         0.732848        -1.860461        -2.624384
 C         0.923333        -0.283851        -2.122230
 H        -0.584148         1.035781        -0.198322
 H        -0.400408        -0.294555         0.793649
 H         0.685354         1.013758         1.312649
 H         3.646671         0.011812        -0.387276
 H         2.764032         0.935223        -2.720321
 H         2.799602        -1.132749        -4.299819
 H         3.917907        -1.723774        -3.090827
 H         0.147041        -1.842144        -3.519069
 H         0.280922        -2.478699        -1.780101
 H         0.219199         0.483411        -2.497206
