19
Iteration:  1856
 C         0.267454         0.205402         0.382415
 C         1.252011        -0.262579        -0.632139
 O         2.301353        -1.160495        -0.242828
 C         2.679568         0.021108        -0.882565
 C         2.455254        -0.201647        -2.387442
 C         2.871124        -1.470736        -3.130679
 O         1.807086        -2.408217        -2.934232
 C         0.629643        -1.634134        -2.957759
 C         0.976917        -0.350348        -2.147472
 H        -0.506768         0.786998        -0.177797
 H        -0.210395        -0.619197         0.768570
 H         0.685115         0.875233         1.084937
 H         3.597816         0.528270        -0.297473
 H         2.731016         0.794409        -2.971887
 H         3.129239        -1.167159        -4.196107
 H         3.687046        -1.985360        -2.540084
 H         0.419415        -1.276484        -3.982845
 H        -0.234764        -2.152117        -2.537152
 H         0.338318         0.494914        -2.464441
