19
Iteration:  3520charge 0 multiplicity 1
 C         0.383759         0.509474         0.448322
 C         1.157947        -0.189545        -0.629879
 O         1.970426        -1.392083        -0.063626
 C         2.604270        -0.255406        -0.755302
 C         2.578441        -0.265400        -2.277650
 C         3.007792        -1.486941        -3.019460
 O         1.842804        -2.147178        -3.602969
 C         0.656967        -1.719321        -2.845989
 C         1.022026        -0.301548        -2.225897
 H        -0.771619         0.541363         0.273674
 H         0.586677        -0.073234         1.348844
 H         0.720496         1.560916         0.525669
 H         3.465428         0.275722        -0.246951
 H         3.095231         0.644905        -2.614247
 H         3.704388        -1.213372        -3.818726
 H         3.513693        -2.203357        -2.326417
 H        -0.227027        -1.715523        -3.407915
 H         0.585495        -2.357336        -1.984936
 H         0.321919         0.539653        -2.652385
