19
Iteration:   160charge 0 multiplicity 1
 C         0.358517         0.327563         0.444690
 C         1.223928        -0.072664        -0.675755
 O         1.967622        -1.304178        -0.454627
 C         2.681673        -0.027778        -0.938881
 C         2.470881        -0.189282        -2.443004
 C         2.979196        -1.461172        -3.012550
 O         1.923211        -2.308331        -3.068340
 C         0.682607        -1.762227        -2.622535
 C         0.951263        -0.339288        -2.153089
 H        -0.281661         1.098536         0.064880
 H        -0.163053        -0.690459         0.766069
 H         0.816682         0.666654         1.356069
 H         3.541488         0.198629        -0.426283
 H         2.800708         0.679093        -3.033684
 H         3.324512        -1.267100        -4.095023
 H         3.942316        -1.957408        -2.568168
 H         0.033054        -1.660557        -3.555299
 H         0.216074        -2.473481        -1.885714
 H         0.285069         0.377877        -2.670881
