19
Iteration:  3504
 C         0.293776         0.528874         0.420805
 C         1.161919        -0.290231        -0.561670
 O         1.974124        -1.304863        -0.132882
 C         2.646090        -0.191852        -0.680890
 C         2.616527        -0.264404        -2.309498
 C         3.007405        -1.599432        -3.095716
 O         1.782689        -2.038256        -3.658292
 C         0.746595        -1.741318        -2.772864
 C         1.040594        -0.405993        -2.133372
 H        -0.624360         0.752788         0.001953
 H         0.246437         0.122826         1.460335
 H         0.799082         1.468954         0.723141
 H         3.245910         0.311849         0.046638
 H         2.882059         0.671042        -2.833426
 H         3.667572        -1.507705        -3.966702
 H         3.409193        -2.307226        -2.391467
 H        -0.105700        -1.552431        -3.526921
 H         0.522217        -2.504842        -1.955704
 H         0.635869         0.477629        -2.541074
