19
Iteration:  4154charge 0 multiplicity 1
 C         0.310686         0.281027         0.333294
 C         1.171158        -0.305032        -0.660425
 O         1.930317        -1.482092        -0.158650
 C         2.740637        -0.384019        -0.669618
 C         2.707533        -0.287436        -2.155449
 C         2.876912        -1.715691        -2.754157
 O         1.711320        -1.980660        -3.547147
 C         0.678864        -1.240467        -3.124225
 C         1.171174        -0.158964        -2.213297
 H         0.734187         0.667523         1.360679
 H        -0.243668         1.058543        -0.140997
 H        -0.314593        -0.540786         0.671167
 H         3.566969         0.183198         0.001110
 H         3.365957         0.597396        -2.544664
 H         3.836875        -1.705059        -3.250100
 H         2.848414        -2.460264        -1.933717
 H         0.266132        -0.836864        -4.158976
 H        -0.068434        -1.783955        -2.545245
 H         0.798069         0.819748        -2.478941
