19
Iteration:   605charge 0 multiplicity 1
 C         0.283165         0.099233         0.434342
 C         1.246116        -0.211285        -0.643453
 O         2.325422        -1.195744        -0.403726
 C         2.679011         0.092465        -0.968170
 C         2.427989        -0.093916        -2.468270
 C         2.956399        -1.528356        -2.974102
 O         1.791597        -2.386424        -2.788858
 C         0.606222        -1.683373        -2.936254
 C         0.905787        -0.272075        -2.192276
 H         0.280557         1.263432         0.313318
 H        -0.626455        -0.196654         0.295487
 H         0.517944        -0.245498         1.387651
 H         3.420186         0.620759        -0.410329
 H         2.695713         0.743440        -3.085427
 H         3.316017        -1.583967        -3.991732
 H         3.735784        -1.994382        -2.381579
 H         0.501356        -1.530879        -4.079394
 H        -0.326143        -2.228383        -2.652677
 H         0.309982         0.505740        -2.552083
