19
Iteration:  2261charge 0 multiplicity 1
 C         0.257937         0.382443         0.334645
 C         1.195462        -0.280492        -0.609539
 O         2.197696        -1.233154        -0.166000
 C         2.633950        -0.038267        -0.866705
 C         2.564361        -0.117539        -2.390250
 C         2.946100        -1.374462        -3.220485
 O         1.867579        -2.356851        -3.105952
 C         0.604616        -1.814071        -2.774283
 C         1.016507        -0.425057        -2.139269
 H        -0.401446         1.197957        -0.203728
 H        -0.319699        -0.314487         0.841936
 H         0.871902         1.111194         0.967599
 H         3.164772         0.514752        -0.287394
 H         2.745302         0.838525        -2.931687
 H         2.974552        -1.189216        -4.374735
 H         3.898985        -1.898586        -3.006250
 H        -0.143385        -1.873063        -3.647135
 H         0.129138        -2.423008        -1.843579
 H         0.364849         0.349688        -2.392575
