19
Iteration:  1039charge 0 multiplicity 1
 C         0.392807         0.671812         0.479310
 C         1.154203        -0.170884        -0.551169
 O         2.109750        -1.135860        -0.062755
 C         2.630774        -0.081737        -0.874861
 C         2.391527        -0.297910        -2.403934
 C         3.030373        -1.416824        -3.126850
 O         1.850980        -2.134518        -3.660451
 C         0.722972        -2.080212        -2.643991
 C         0.926361        -0.635697        -2.089876
 H         0.291806         1.656054         0.148802
 H        -0.759754         0.329130         0.539060
 H         0.909215         0.737959         1.375516
 H         3.452437         0.558522        -0.315842
 H         2.456697         0.598871        -3.010765
 H         3.698422        -1.260379        -3.928921
 H         3.526901        -2.155100        -2.543029
 H        -0.237410        -2.251446        -2.909856
 H         0.925260        -2.820212        -1.869760
 H         0.322392        -0.053983        -2.615890
