19
Iteration:  2294
 C         0.393234         0.530032         0.469977
 C         1.193844        -0.150146        -0.634148
 O         1.989012        -1.242756        -0.205858
 C         2.629509        -0.179065        -0.927207
 C         2.408589        -0.158264        -2.416675
 C         2.934281        -1.281796        -3.248278
 O         2.047452        -2.426814        -3.069931
 C         0.756406        -1.887968        -2.838743
 C         0.890784        -0.442775        -2.079273
 H        -0.185663         1.498842         0.037621
 H        -0.322885        -0.068697         0.910179
 H         1.104531         0.672407         1.383298
 H         3.432055         0.159573        -0.504839
 H         2.504249         0.887446        -2.803359
 H         2.841096        -1.102098        -4.369825
 H         3.954964        -1.652854        -3.029522
 H         0.299130        -1.630075        -3.833513
 H         0.067462        -2.622567        -2.144405
 H         0.193731         0.273364        -2.361476
