19
Iteration:  2335charge 0 multiplicity 1
 C         0.415860         0.524662         0.398635
 C         1.059115        -0.289286        -0.713542
 O         2.039261        -1.364942        -0.360080
 C         2.574193        -0.220597        -0.937650
 C         2.447554        -0.085400        -2.395624
 C         2.880616        -1.213076        -3.286329
 O         2.072760        -2.406249        -2.884034
 C         0.741377        -1.867811        -2.622340
 C         0.922821        -0.320755        -2.187023
 H         0.622067         1.611802         0.253336
 H        -0.626301         0.300308         0.586933
 H         1.007334         0.264365         1.323036
 H         3.407511         0.393473        -0.299182
 H         2.847580         0.873907        -2.819988
 H         2.743700        -0.939272        -4.323209
 H         3.932021        -1.502406        -3.169293
 H         0.143109        -1.966913        -3.487312
 H         0.362875        -2.572622        -1.818122
 H         0.216913         0.401347        -2.636345
