19
Iteration:  2124charge 0 multiplicity 1
 C         0.224739         0.344637         0.425271
 C         1.206069        -0.269830        -0.659102
 O         2.288527        -1.170622        -0.200216
 C         2.693447        -0.002715        -0.847925
 C         2.478981        -0.170727        -2.411767
 C         2.882701        -1.454235        -3.137047
 O         1.868984        -2.431895        -3.031552
 C         0.608326        -1.698465        -2.953367
 C         0.987777        -0.385402        -2.139342
 H        -0.170869         1.255843         0.220801
 H        -0.651693        -0.466033         0.529578
 H         0.663634         0.422265         1.428150
 H         3.538086         0.603774        -0.274960
 H         2.627430         0.655405        -3.065390
 H         3.097742        -1.205023        -4.169138
 H         3.845621        -1.768306        -2.746914
 H         0.211014        -1.463121        -3.997605
 H        -0.037514        -2.417987        -2.384721
 H         0.328631         0.529628        -2.371330
