19
Iteration:  2226
 C         0.136847         0.176389         0.348918
 C         1.306851        -0.062051        -0.572308
 O         2.266048        -1.171635        -0.259816
 C         2.735334         0.009779        -0.916512
 C         2.539475        -0.128620        -2.461840
 C         2.968995        -1.533592        -3.066634
 O         1.799279        -2.377774        -3.107277
 C         0.554814        -1.730550        -2.766767
 C         0.976077        -0.325926        -2.145152
 H        -0.607388         0.775806        -0.205640
 H        -0.367342        -0.841246         0.505653
 H         0.347737         0.469736         1.370630
 H         3.554546         0.553134        -0.391971
 H         2.858690         0.762603        -3.067595
 H         3.315850        -1.234713        -4.093374
 H         3.773459        -2.026490        -2.492298
 H        -0.174330        -1.823061        -3.604875
 H         0.187311        -2.378254        -1.861067
 H         0.402045         0.543491        -2.546753
