19
Iteration:  3998
 C         0.388363         0.572061         0.507464
 C         1.135143        -0.195146        -0.573919
 O         1.773224        -1.449950        -0.230017
 C         2.596906        -0.429640        -0.629590
 C         2.675415        -0.418598        -2.147098
 C         3.018019        -1.592279        -3.034809
 O         1.873475        -1.952833        -3.722853
 C         0.691045        -1.549727        -2.902357
 C         1.094930        -0.254769        -2.160368
 H         0.103274        -0.039505         1.251440
 H         1.029554         1.326025         0.990701
 H        -0.604554         1.025351         0.159650
 H         3.317771        -0.171551         0.066112
 H         3.109038         0.458367        -2.573116
 H         3.784611        -1.277123        -3.744812
 H         3.459445        -2.319078        -2.409905
 H        -0.170045        -1.569739        -3.596787
 H         0.489527        -2.390049        -2.227242
 H         0.871856         0.690220        -2.626794
