19
Iteration:  1998
 C         0.318908         0.441088         0.444413
 C         1.201144        -0.189681        -0.519130
 O         2.134233        -1.228395        -0.209352
 C         2.622898        -0.076968        -0.883032
 C         2.413001        -0.168643        -2.407980
 C         2.962074        -1.396145        -3.285489
 O         1.962552        -2.415179        -3.112570
 C         0.684172        -1.805151        -2.830912
 C         0.935836        -0.447950        -2.077960
 H         0.200737         1.649658         0.113577
 H        -0.693177         0.159643         0.196795
 H         0.585158         0.483610         1.538633
 H         3.465843         0.380257        -0.188559
 H         2.451083         0.806277        -3.093221
 H         3.119959        -1.028992        -4.302873
 H         3.909579        -1.816595        -2.843969
 H         0.281290        -1.567665        -3.832137
 H         0.012431        -2.602583        -2.408393
 H         0.415886         0.414553        -2.524903
