19
Iteration:  3564
 C         0.288945         0.472968         0.411418
 C         1.182344        -0.263244        -0.592749
 O         1.922150        -1.487512        -0.317031
 C         2.660251        -0.241217        -0.791042
 C         2.668276        -0.170857        -2.315051
 C         3.045958        -1.507334        -2.994943
 O         1.771790        -2.192376        -3.440271
 C         0.657266        -1.605891        -2.706192
 C         1.078907        -0.191390        -2.172081
 H        -0.438105        -0.264482         0.862975
 H         0.872075         0.750245         1.269313
 H        -0.252617         1.215747        -0.115744
 H         3.463627         0.118822        -0.009931
 H         3.076441         0.758384        -2.755086
 H         3.632569        -1.388476        -3.901713
 H         3.586161        -2.142056        -2.297533
 H        -0.042336        -1.624291        -3.474422
 H         0.298376        -2.300772        -1.973696
 H         0.657397         0.705101        -2.798137
