19
Iteration:   101charge 0 multiplicity 1
 C         0.173833         0.385748         0.336346
 C         1.253961        -0.228236        -0.585964
 O         2.296461        -1.109947        -0.161135
 C         2.732583         0.012905        -0.847652
 C         2.502036        -0.213484        -2.407830
 C         3.015607        -1.430374        -3.083714
 O         1.802237        -2.332785        -3.326107
 C         0.497490        -1.843700        -2.751863
 C         0.999453        -0.536095        -2.063390
 H         0.211859         1.543394         0.309357
 H        -0.698915         0.283389        -0.144670
 H         0.168052         0.026546         1.406810
 H         3.550508         0.749699        -0.290282
 H         2.721681         0.697301        -2.977646
 H         3.430224        -1.290366        -4.075529
 H         3.698864        -1.924558        -2.399235
 H        -0.095346        -1.480630        -3.669974
 H        -0.091458        -2.636877        -2.287132
 H         0.382892         0.222061        -2.451757
