19
Iteration:  2614
 C         0.455881         0.490588         0.501864
 C         1.126909        -0.214974        -0.605362
 O         1.971063        -1.291081        -0.207825
 C         2.562972        -0.123563        -0.904076
 C         2.472619        -0.109239        -2.406990
 C         3.006331        -1.316671        -3.223893
 O         2.043351        -2.395627        -3.153296
 C         0.703925        -1.856240        -2.729874
 C         0.863509        -0.405218        -2.225012
 H        -0.068391         1.474503         0.220434
 H        -0.373141        -0.090510         0.821938
 H         1.089855         0.859954         1.252272
 H         3.381323         0.418177        -0.197853
 H         2.676074         0.881179        -2.843346
 H         3.030948        -0.958631        -4.308268
 H         3.927012        -1.892420        -3.024155
 H         0.072589        -2.099325        -3.631895
 H         0.441855        -2.642384        -1.902370
 H         0.233347         0.323751        -2.713339
