19
Iteration:  4669
 C         0.118353         0.332476         0.192077
 C         1.283749        -0.250367        -0.555858
 O         1.841651        -1.513817        -0.167181
 C         2.727667        -0.473664        -0.623782
 C         2.763366        -0.337962        -2.158141
 C         3.012992        -1.625366        -3.035208
 O         1.721086        -2.150426        -3.376623
 C         0.664972        -1.186120        -2.966619
 C         1.204073        -0.071620        -2.195125
 H         0.167176         0.071977         1.207416
 H         0.004260         1.476075         0.194728
 H        -0.811305        -0.045855        -0.131931
 H         3.414382         0.010246         0.161486
 H         3.471642         0.552251        -2.571335
 H         3.727239        -1.269316        -3.822303
 H         3.592818        -2.474631        -2.702181
 H         0.187799        -0.698388        -3.939342
 H        -0.181326        -1.791201        -2.405310
 H         1.061062         1.007740        -2.405209
