19
Iteration:  2836
 C         0.231920         0.140271         0.341298
 C         1.270813        -0.225442        -0.689070
 O         2.238632        -1.096477        -0.198860
 C         2.718675         0.046692        -0.879471
 C         2.521438        -0.192631        -2.362802
 C         2.948779        -1.516795        -3.080138
 O         1.796959        -2.361378        -3.127989
 C         0.528148        -1.641609        -2.791973
 C         0.997810        -0.346505        -2.139359
 H        -0.686162         0.598780        -0.121740
 H        -0.017163        -0.830223         0.908378
 H         0.601636         0.807325         1.185945
 H         3.551070         0.649354        -0.392478
 H         2.842819         0.614361        -3.005461
 H         3.252417        -1.327558        -4.110069
 H         3.705384        -2.117765        -2.644021
 H         0.017540        -1.451003        -3.686995
 H        -0.070807        -2.461621        -2.225195
 H         0.575487         0.551600        -2.681586
