19
Iteration:  2190charge 0 multiplicity 1
 C         0.319450         0.068424         0.404977
 C         1.234770        -0.192099        -0.725941
 O         2.265715        -1.139283        -0.341951
 C         2.596035         0.154895        -0.890961
 C         2.540286        -0.145362        -2.470489
 C         2.985665        -1.590675        -2.865704
 O         1.800572        -2.382057        -3.071280
 C         0.541597        -1.646993        -2.790269
 C         0.960525        -0.275530        -2.247946
 H        -0.113434         0.996483         0.429500
 H        -0.492882        -0.792702         0.236310
 H         0.773903        -0.054237         1.355455
 H         3.308864         0.968180        -0.276100
 H         2.885087         0.612624        -3.161848
 H         3.470746        -1.561832        -3.796531
 H         3.562458        -2.253148        -2.228171
 H        -0.202597        -1.633747        -3.555766
 H         0.147756        -2.215671        -1.957770
 H         0.412837         0.680000        -2.628042
