19
Iteration:  4478charge 0 multiplicity 1
 C         0.304637         0.345939         0.302765
 C         1.238312        -0.204508        -0.645411
 O         1.725208        -1.519807        -0.168417
 C         2.646632        -0.442440        -0.608935
 C         2.767765        -0.322974        -2.142206
 C         3.044670        -1.530913        -2.979533
 O         1.741658        -2.201133        -3.408802
 C         0.603101        -1.231439        -3.068427
 C         1.235843        -0.093196        -2.163118
 H         0.694375         0.170938         1.366589
 H         0.148000         1.334266         0.017904
 H        -0.685494        -0.207861         0.022513
 H         3.474819        -0.325282         0.137270
 H         3.276622         0.564685        -2.359129
 H         3.552291        -1.335448        -3.977075
 H         3.597598        -2.432286        -2.533413
 H         0.302536        -0.755667        -3.980574
 H        -0.098669        -1.815937        -2.549290
 H         1.109525         0.955556        -2.478704
