19
Iteration:  2482charge 0 multiplicity 1
 C         0.331122         0.083138         0.514866
 C         1.205395        -0.274916        -0.676216
 O         2.278854        -1.140216        -0.337066
 C         2.598361         0.104272        -0.893599
 C         2.517194        -0.130178        -2.487202
 C         2.926873        -1.572192        -2.925413
 O         1.833622        -2.405358        -2.953916
 C         0.568506        -1.607684        -2.953722
 C         0.947005        -0.271633        -2.292935
 H        -0.432313         0.800276         0.041627
 H        -0.066909        -0.744207         1.065234
 H         0.959700         0.518016         1.323547
 H         3.271203         0.896628        -0.288465
 H         2.740270         0.735882        -3.151341
 H         3.404119        -1.556216        -3.915358
 H         3.709787        -1.927898        -2.185333
 H         0.161101        -1.461656        -3.950419
 H        -0.143980        -2.273877        -2.255504
 H         0.416043         0.642373        -2.683504
