19
Iteration:  3961
 C         0.331970         0.362981         0.398456
 C         1.129371        -0.252166        -0.644264
 O         1.820373        -1.401389        -0.267626
 C         2.701521        -0.385016        -0.707367
 C         2.718218        -0.337155        -2.251190
 C         2.966361        -1.622473        -2.886119
 O         1.837404        -1.952347        -3.582200
 C         0.635551        -1.461420        -2.868458
 C         1.145021        -0.181013        -2.132129
 H        -0.121473        -0.565632         1.000788
 H         0.887812         1.041994         1.080232
 H        -0.354191         1.101160        -0.080532
 H         3.547347        -0.137108         0.043777
 H         3.143588         0.616018        -2.659896
 H         3.860554        -1.686678        -3.605909
 H         3.066349        -2.559797        -2.148603
 H        -0.151891        -1.415532        -3.628365
 H         0.366250        -2.128513        -2.031208
 H         0.634344         0.785754        -2.524584
