19
Iteration:   596charge 0 multiplicity 1
 C         0.288088         0.108377         0.437392
 C         1.234858        -0.284522        -0.645133
 O         2.381385        -1.212958        -0.333926
 C         2.667579         0.083807        -0.987460
 C         2.447839        -0.105362        -2.458824
 C         2.903005        -1.495404        -2.941775
 O         1.812144        -2.431130        -2.752189
 C         0.608151        -1.620489        -3.013247
 C         0.842239        -0.251322        -2.259745
 H         0.247719         1.336298         0.393819
 H        -0.739992        -0.233380         0.368279
 H         0.787427        -0.180212         1.347982
 H         3.526416         0.699874        -0.632184
 H         2.753328         0.593187        -3.298679
 H         3.386105        -1.483359        -4.010519
 H         3.641470        -1.824966        -2.213159
 H         0.497780        -1.382088        -4.074852
 H        -0.330815        -2.158840        -2.661786
 H         0.186730         0.583980        -2.628466
