19
Iteration:  3975
 C         0.331390         0.462888         0.512176
 C         1.212228        -0.169197        -0.602852
 O         1.787207        -1.498483        -0.310410
 C         2.639540        -0.336214        -0.629575
 C         2.742180        -0.275490        -2.171281
 C         3.017629        -1.650759        -2.922099
 O         1.784034        -1.993682        -3.687802
 C         0.692039        -1.548150        -2.875110
 C         1.089380        -0.221299        -2.219698
 H        -0.067598        -0.207911         1.192038
 H         1.024870         1.107788         1.093947
 H        -0.590211         1.056132         0.158259
 H         3.333904        -0.018280         0.126532
 H         3.362572         0.507587        -2.564139
 H         3.817290        -1.547578        -3.700181
 H         3.334722        -2.342560        -2.142200
 H        -0.151217        -1.292881        -3.555103
 H         0.320206        -2.366380        -2.257482
 H         0.719368         0.708175        -2.726837
