19
Iteration:  1863charge 0 multiplicity 1
 C         0.269643         0.197428         0.403887
 C         1.214864        -0.243850        -0.649602
 O         2.339141        -1.201770        -0.297459
 C         2.645498         0.039968        -0.875001
 C         2.518332        -0.174345        -2.383027
 C         2.933827        -1.478198        -3.098095
 O         1.785434        -2.370111        -2.903420
 C         0.618644        -1.632305        -2.904724
 C         0.960860        -0.330656        -2.207673
 H        -0.551835         0.740524        -0.219323
 H        -0.270002        -0.713530         0.881294
 H         0.587171         0.872391         1.201147
 H         3.362409         0.483276        -0.370707
 H         2.846519         0.594075        -2.981138
 H         2.992212        -1.427225        -4.208746
 H         3.772641        -2.063129        -2.753418
 H         0.315587        -1.284360        -3.957060
 H        -0.326764        -2.203495        -2.544235
 H         0.298102         0.485522        -2.477432
