19
Iteration:   806charge 0 multiplicity 1
 C         0.162298         0.302925         0.304794
 C         1.246139        -0.184147        -0.618907
 O         2.244774        -1.244148        -0.325565
 C         2.712315        -0.054240        -0.902102
 C         2.479657        -0.164908        -2.417294
 C         2.908479        -1.412484        -3.222949
 O         1.915604        -2.359227        -3.001675
 C         0.630716        -1.774098        -2.563992
 C         0.960426        -0.313297        -2.173993
 H        -0.070314         1.458364         0.226965
 H        -0.703787        -0.239691         0.039903
 H         0.420925         0.143716         1.464553
 H         3.548881         0.218333        -0.371454
 H         2.668246         0.790978        -3.049696
 H         2.890437        -1.149728        -4.346815
 H         3.901862        -1.857979        -3.048950
 H        -0.054012        -1.847185        -3.478290
 H         0.125038        -2.449457        -1.782110
 H         0.464958         0.657903        -2.505375
