19
Iteration:  4325
 C         0.265190         0.667041         0.357232
 C         1.143392        -0.254968        -0.461164
 O         1.782883        -1.460138        -0.149748
 C         2.657130        -0.464946        -0.575717
 C         2.681883        -0.475911        -2.089709
 C         3.028290        -1.678937        -2.976938
 O         1.834760        -1.776471        -3.901031
 C         0.765104        -1.498240        -2.932244
 C         1.135225        -0.371469        -2.105537
 H         0.823225         1.119808         1.188090
 H        -0.017180         1.531823        -0.282562
 H        -0.624646         0.045785         0.825478
 H         3.474083        -0.050879         0.196113
 H         3.031923         0.433084        -2.535545
 H         3.937088        -1.626973        -3.611600
 H         3.036783        -2.630061        -2.481948
 H        -0.112917        -1.449433        -3.517907
 H         0.484008        -2.437564        -2.328968
 H         0.909010         0.654018        -2.473813
