19
Iteration:  3446
 C         0.206417         0.364762         0.318375
 C         1.251002        -0.219474        -0.549636
 O         2.063615        -1.264521        -0.049663
 C         2.696442        -0.076842        -0.742066
 C         2.715790        -0.302950        -2.304604
 C         2.904341        -1.653287        -2.999376
 O         1.695198        -2.006500        -3.759572
 C         0.714229        -1.686117        -2.692955
 C         1.082974        -0.409269        -2.119362
 H        -0.326580         1.307222        -0.148401
 H        -0.566879        -0.404032         0.276833
 H         0.562803         0.724575         1.199188
 H         3.424920         0.385349        -0.005142
 H         3.010586         0.535663        -2.912927
 H         3.636587        -1.482297        -3.786909
 H         3.228262        -2.498296        -2.339100
 H        -0.337828        -1.667078        -3.098689
 H         0.647539        -2.418302        -1.861081
 H         0.672558         0.529916        -2.539628
