19
Iteration:  3139charge 0 multiplicity 1
 C         0.224383         0.219868         0.366370
 C         1.224307        -0.212486        -0.694039
 O         2.216947        -1.227962        -0.133761
 C         2.699195        -0.077330        -0.780237
 C         2.523410        -0.172923        -2.352126
 C         2.934343        -1.464041        -3.101205
 O         1.764373        -2.376809        -3.194984
 C         0.624879        -1.647788        -2.808626
 C         1.071762        -0.273747        -2.225633
 H        -0.772477        -0.416163         0.248205
 H         0.792725         0.388654         1.271119
 H        -0.150639         1.153732         0.038964
 H         3.510134         0.571783        -0.210721
 H         2.735499         0.746325        -2.901949
 H         3.132806        -1.156468        -4.186973
 H         3.690903        -2.055264        -2.721576
 H        -0.000858        -1.592642        -3.740709
 H         0.059145        -2.217441        -1.993340
 H         0.627217         0.660945        -2.617882
