19
Iteration:  2231
 C         0.151884         0.175813         0.319763
 C         1.297426        -0.081654        -0.573984
 O         2.266008        -1.200081        -0.238722
 C         2.744237         0.028569        -0.911344
 C         2.523698        -0.164270        -2.424974
 C         2.959144        -1.508985        -3.101165
 O         1.811452        -2.373822        -3.122255
 C         0.562659        -1.747390        -2.734390
 C         0.976868        -0.298066        -2.153668
 H        -0.581407         0.809243        -0.256117
 H        -0.369864        -0.734330         0.507129
 H         0.420442         0.673670         1.314247
 H         3.458239         0.645629        -0.289283
 H         2.807520         0.666839        -3.048534
 H         3.229623        -1.280999        -4.158712
 H         3.794108        -1.921393        -2.511275
 H        -0.118539        -1.863825        -3.609523
 H         0.111604        -2.330135        -1.949749
 H         0.375750         0.541941        -2.488854
