19
Iteration:  2005
 C         0.297759         0.488818         0.455622
 C         1.198641        -0.206247        -0.620336
 O         2.104149        -1.242060        -0.230816
 C         2.657816        -0.079432        -0.831537
 C         2.433845        -0.187583        -2.389655
 C         2.958805        -1.370563        -3.267426
 O         1.961892        -2.407024        -3.113616
 C         0.707131        -1.792272        -2.790554
 C         0.922360        -0.473562        -2.132763
 H         0.383776         1.553243         0.147471
 H        -0.784058         0.034531         0.562095
 H         0.742716         0.420574         1.404019
 H         3.510454         0.427061        -0.340361
 H         2.411221         0.789137        -2.824693
 H         3.062753        -1.030347        -4.314423
 H         3.926952        -1.703648        -2.906833
 H         0.220507        -1.615753        -3.755746
 H         0.038542        -2.534216        -2.227260
 H         0.267278         0.355636        -2.534687
