19
Iteration:  2577
 C         0.306599         0.365101         0.372565
 C         1.244339        -0.208860        -0.627738
 O         2.076048        -1.287378        -0.263330
 C         2.656744        -0.072423        -0.940716
 C         2.479764        -0.043778        -2.419539
 C         2.890137        -1.352596        -3.197167
 O         1.984278        -2.424798        -3.022750
 C         0.690805        -1.802920        -2.670738
 C         0.915356        -0.370770        -2.184447
 H         0.098107         1.431373         0.069935
 H        -0.602773        -0.231983         0.295287
 H         0.637289         0.077227         1.438811
 H         3.395099         0.263940        -0.339877
 H         2.764648         0.945888        -2.902321
 H         2.940663        -1.045982        -4.253217
 H         3.917997        -1.679646        -2.902735
 H         0.008939        -1.746431        -3.483841
 H         0.264487        -2.312009        -1.891616
 H         0.358384         0.391466        -2.661171
