19
Iteration:  3238charge 0 multiplicity 1
 C         0.329807         0.403994         0.484163
 C         1.177543        -0.206493        -0.631138
 O         2.020920        -1.408385        -0.328540
 C         2.591813        -0.204910        -0.832781
 C         2.551668        -0.095081        -2.387010
 C         2.972166        -1.394178        -3.092742
 O         1.922372        -2.400790        -3.001115
 C         0.682079        -1.669844        -2.898569
 C         0.965671        -0.178563        -2.257583
 H         0.547315        -0.386983         1.389957
 H         0.879353         1.302118         0.746945
 H        -0.729671         0.437919         0.257794
 H         3.352239         0.237501        -0.214192
 H         2.960897         0.758089        -2.877669
 H         2.998364        -1.273558        -4.219351
 H         3.883775        -1.840230        -2.815211
 H         0.175375        -1.565125        -3.840184
 H         0.070479        -2.394553        -2.302742
 H         0.465687         0.676168        -2.685446
