19
Iteration:  1350charge 0 multiplicity 1
 C         0.281739         0.407563         0.425346
 C         1.224708        -0.218347        -0.589976
 O         2.294129        -1.106727        -0.075718
 C         2.627033         0.015976        -0.825307
 C         2.507339        -0.265470        -2.367986
 C         2.994353        -1.553717        -3.000428
 O         1.845271        -2.246406        -3.531504
 C         0.535404        -1.814781        -2.834053
 C         0.919691        -0.521094        -2.117375
 H        -0.089461         1.259775        -0.192064
 H        -0.505622        -0.149312         0.779957
 H         0.833667         0.698175         1.368690
 H         3.111476         0.902779        -0.479002
 H         2.915449         0.689185        -2.873106
 H         3.629923        -1.259873        -3.838355
 H         3.411769        -2.253889        -2.315626
 H        -0.185305        -1.758966        -3.682844
 H         0.211101        -2.513904        -1.994243
 H         0.308561         0.305240        -2.572497
