19
Iteration:  3897
 C         0.192285         0.193124         0.262076
 C         1.297204        -0.192755        -0.634009
 O         2.033169        -1.345207        -0.068690
 C         2.720946        -0.264905        -0.701957
 C         2.737836        -0.369838        -2.249206
 C         2.890850        -1.754169        -2.902464
 O         1.735580        -1.960267        -3.591991
 C         0.535628        -1.374382        -2.896132
 C         1.143557        -0.181633        -2.152949
 H        -0.713837         0.004517        -0.328043
 H         0.023898        -0.338519         1.201937
 H         0.118330         1.325616         0.476009
 H         3.547782         0.328142        -0.107196
 H         3.501550         0.305972        -2.720798
 H         3.799843        -1.727405        -3.610724
 H         3.135602        -2.519836        -2.135095
 H        -0.039299        -1.127781        -3.823594
 H         0.212061        -2.136804        -2.135435
 H         0.838533         0.985495        -2.186315
