19
Iteration:  3356charge 0 multiplicity 1
 C         0.301670         0.313663         0.415312
 C         1.223171        -0.268619        -0.653347
 O         1.983364        -1.384570        -0.301737
 C         2.676109        -0.057549        -0.821892
 C         2.594004        -0.140723        -2.334231
 C         2.994566        -1.564847        -2.977876
 O         1.836008        -2.243287        -3.296157
 C         0.640696        -1.592293        -2.800926
 C         1.006566        -0.260342        -2.192883
 H         0.846443         1.232767         0.941271
 H        -0.626735         0.696986         0.119015
 H         0.247686        -0.330083         1.248428
 H         3.484840         0.183416        -0.153443
 H         2.871184         0.778683        -2.890801
 H         3.584954        -1.362068        -3.889408
 H         3.664287        -2.137055        -2.289158
 H        -0.080732        -1.555888        -3.588722
 H         0.166705        -2.325221        -2.099734
 H         0.433720         0.580368        -2.676550
