19
Iteration:   563
 C         0.321614         0.085589         0.438134
 C         1.233665        -0.305026        -0.695704
 O         2.319718        -1.123513        -0.311841
 C         2.614558         0.215522        -0.889500
 C         2.560024        -0.184012        -2.433296
 C         2.921032        -1.560950        -3.015300
 O         1.771178        -2.452628        -2.864991
 C         0.574704        -1.569979        -2.969669
 C         0.900781        -0.337802        -2.220125
 H        -0.175292         1.179563         0.224023
 H        -0.476462        -0.618030         0.709042
 H         0.965125         0.350718         1.269829
 H         3.353692         0.864271        -0.451996
 H         2.780243         0.671901        -3.095570
 H         3.269641        -1.445243        -4.134358
 H         3.698508        -2.048140        -2.410738
 H         0.330089        -1.280907        -3.974495
 H        -0.165750        -2.299029        -2.581933
 H         0.401381         0.590037        -2.516383
