19
Iteration:  1579charge 0 multiplicity 1
 C         0.262742         0.332547         0.268698
 C         1.254861        -0.246800        -0.632380
 O         2.138477        -1.310286        -0.280047
 C         2.689055         0.016527        -0.851668
 C         2.543667        -0.074364        -2.413587
 C         2.955791        -1.409476        -3.193861
 O         1.858812        -2.385375        -3.140263
 C         0.635683        -1.775720        -2.579294
 C         0.936995        -0.366685        -2.164829
 H         0.043430         1.413811         0.003851
 H        -0.696924        -0.198714         0.332929
 H         0.695472         0.285960         1.312809
 H         3.580098         0.379596        -0.176568
 H         2.771997         1.016790        -2.771955
 H         3.156060        -1.255936        -4.291661
 H         3.615969        -1.957012        -2.505550
 H        -0.090620        -1.649419        -3.411442
 H         0.189497        -2.329134        -1.786627
 H         0.385822         0.575287        -2.407677
