19
Iteration:  4551
 C         0.334791         0.439580         0.333514
 C         1.212691        -0.236052        -0.606477
 O         1.636297        -1.631587        -0.358055
 C         2.626713        -0.568980        -0.666970
 C         2.774471        -0.347268        -2.169954
 C         3.119935        -1.419001        -3.088151
 O         1.783376        -2.156478        -3.015956
 C         0.617466        -1.250931        -3.123713
 C         1.232886        -0.048699        -2.215874
 H         0.848275         0.518917         1.241273
 H        -0.113404         1.434901        -0.084038
 H        -0.457862        -0.284592         0.532049
 H         3.420641        -0.554289         0.182654
 H         3.306859         0.643643        -2.316039
 H         3.354358        -1.097211        -4.103728
 H         3.943157        -2.119293        -2.858102
 H         0.280164        -1.078759        -4.151161
 H        -0.214737        -1.745935        -2.564022
 H         0.823882         0.926964        -2.664805
