19
Iteration:  2929charge 0 multiplicity 1
 C         0.329033         0.539248         0.461230
 C         1.108484        -0.249760        -0.631450
 O         2.145112        -1.190371        -0.220559
 C         2.551777        -0.061221        -0.821471
 C         2.547393        -0.228571        -2.312837
 C         2.963488        -1.449830        -3.128719
 O         1.866471        -2.262586        -3.498776
 C         0.754225        -1.901882        -2.590030
 C         0.933817        -0.432032        -2.196258
 H         0.569584         1.645921         0.544905
 H        -0.671440         0.204701         0.456996
 H         0.587696         0.152798         1.425168
 H         3.148660         0.575965        -0.394724
 H         2.743912         0.770747        -2.745285
 H         3.523708        -1.161641        -4.072904
 H         3.647104        -2.166983        -2.534809
 H        -0.132287        -2.159833        -3.199819
 H         0.746957        -2.583397        -1.742247
 H         0.339362         0.249525        -2.832119
