19
Iteration:  2757
 C         0.300112         0.136153         0.424124
 C         1.195189        -0.272272        -0.664302
 O         2.271560        -1.246272        -0.366599
 C         2.711305        -0.004573        -0.912326
 C         2.459897        -0.075122        -2.478191
 C         2.921029        -1.387801        -2.961669
 O         1.816656        -2.395410        -2.818831
 C         0.612125        -1.651188        -2.946364
 C         0.928303        -0.300066        -2.276854
 H         0.265835         1.363624         0.364080
 H        -0.732692        -0.395612         0.535658
 H         0.862527         0.152133         1.293003
 H         3.477278         0.530097        -0.512791
 H         2.857861         0.679643        -3.120449
 H         3.410795        -1.424245        -3.922972
 H         3.594352        -1.829650        -2.272306
 H         0.263601        -1.601381        -3.927446
 H        -0.200254        -2.114094        -2.297861
 H         0.205536         0.432076        -2.606085
