19
Iteration:  1939
 C         0.211599         0.119636         0.392971
 C         1.228542        -0.250119        -0.665483
 O         2.241821        -1.211509        -0.294650
 C         2.698364         0.120360        -0.940503
 C         2.552446        -0.098540        -2.454266
 C         2.944959        -1.510001        -3.061165
 O         1.818981        -2.418550        -2.934717
 C         0.630685        -1.622617        -2.783158
 C         0.982194        -0.298826        -2.232822
 H         0.004451         1.262413         0.273811
 H        -0.850209        -0.417231         0.446654
 H         0.593907        -0.021093         1.411388
 H         3.299755         0.599086        -0.307835
 H         2.791616         0.638484        -3.124693
 H         3.128686        -1.338779        -4.084679
 H         3.686269        -2.192042        -2.770468
 H         0.162763        -1.461065        -3.730554
 H        -0.099244        -2.083365        -2.069198
 H         0.282215         0.445772        -2.662071
