19
Iteration:  4178
 C         0.154399         0.272936         0.364845
 C         1.208370        -0.231034        -0.560076
 O         1.964859        -1.456895        -0.254028
 C         2.747288        -0.272964        -0.567147
 C         2.762430        -0.364033        -2.233020
 C         3.007833        -1.805125        -2.864603
 O         1.686130        -2.052062        -3.572913
 C         0.581979        -1.201685        -3.055142
 C         1.222022        -0.136406        -2.107610
 H         0.338619         0.365507         1.513324
 H        -0.177688         1.246146        -0.045402
 H        -0.612528        -0.460455         0.326745
 H         3.249925         0.241944         0.197538
 H         3.397722         0.386937        -2.773742
 H         3.805878        -1.640296        -3.563504
 H         3.232490        -2.581287        -2.185832
 H         0.307834        -0.700496        -4.030373
 H        -0.277240        -1.871241        -2.674258
 H         1.050472         0.884954        -2.496164
