19
Iteration:  3206
 C         0.387670         0.290453         0.415143
 C         1.180890        -0.207691        -0.649882
 O         1.956682        -1.389641        -0.320044
 C         2.658559        -0.125704        -0.854242
 C         2.550354        -0.112115        -2.421049
 C         2.961393        -1.421655        -3.133800
 O         1.895562        -2.326555        -2.880044
 C         0.687798        -1.650804        -2.921883
 C         0.991693        -0.239359        -2.196106
 H         0.235371        -0.564243         1.206511
 H         0.860288         1.175022         0.884530
 H        -0.677274         0.586457         0.276928
 H         3.377987         0.270208        -0.188421
 H         2.828819         0.760898        -2.953856
 H         2.897170        -1.211716        -4.276599
 H         3.857537        -1.941499        -2.875017
 H         0.362954        -1.380844        -3.858629
 H         0.030261        -2.363494        -2.422585
 H         0.517003         0.596050        -2.668002
