19
Iteration:  4833charge 0 multiplicity 1
 C         0.193424         0.391540         0.255719
 C         1.224994        -0.268100        -0.607463
 O         1.725780        -1.606741        -0.414072
 C         2.684692        -0.402770        -0.601593
 C         2.834246        -0.292506        -2.120257
 C         3.031353        -1.577358        -3.022505
 O         1.722441        -2.146438        -3.257437
 C         0.659670        -1.251206        -2.932315
 C         1.258583        -0.068799        -2.132719
 H         0.072619        -0.119942         1.141814
 H         0.421200         1.601467         0.455778
 H        -0.699349         0.352518        -0.337327
 H         3.492727        -0.316748         0.007973
 H         3.554701         0.666532        -2.329054
 H         3.536395        -1.100442        -3.874839
 H         3.679311        -2.424330        -2.830211
 H         0.263227        -0.985555        -3.875060
 H        -0.033253        -2.012459        -2.501381
 H         0.831803         0.880517        -2.407634
