19
Iteration:  4614
 C         0.255302         0.375203         0.369165
 C         1.177812        -0.266625        -0.612980
 O         1.765323        -1.518541        -0.240195
 C         2.604630        -0.487020        -0.655314
 C         2.724790        -0.269995        -2.234019
 C         3.054587        -1.540545        -3.004106
 O         1.771966        -2.151607        -3.275501
 C         0.704946        -1.285800        -3.069815
 C         1.216226        -0.108595        -2.228336
 H         0.332779        -0.123622         1.334396
 H         0.664303         1.459575         0.565140
 H        -0.746943         0.475688         0.006476
 H         3.429803        -0.246396         0.131687
 H         3.541825         0.504456        -2.538351
 H         3.725311        -1.382724        -3.922101
 H         3.466558        -2.325169        -2.368644
 H         0.307376        -0.836902        -4.061755
 H        -0.135757        -1.882583        -2.513967
 H         0.891869         0.941824        -2.387848
