19
Iteration:   642charge 0 multiplicity 1
 C         0.254030         0.150616         0.382708
 C         1.237986        -0.168199        -0.690389
 O         2.211407        -1.163890        -0.274918
 C         2.679875        -0.017421        -0.869059
 C         2.503712        -0.136994        -2.463276
 C         2.952931        -1.506850        -3.155437
 O         1.824249        -2.372793        -2.957868
 C         0.623071        -1.736137        -2.682707
 C         0.984869        -0.274347        -2.278695
 H        -0.010420         1.284224         0.259252
 H        -0.797952        -0.389837         0.081485
 H         0.597725        -0.041958         1.474983
 H         3.469679         0.585809        -0.315629
 H         2.889806         0.959230        -2.821508
 H         3.044794        -1.266451        -4.325897
 H         3.879081        -1.975056        -2.756853
 H        -0.118242        -1.722936        -3.528954
 H         0.192941        -2.388764        -1.846872
 H         0.398685         0.683934        -2.635285
