19
Iteration:  4423charge 0 multiplicity 1
 C         0.324992         0.316643         0.370699
 C         1.244891        -0.301182        -0.723113
 O         1.764842        -1.510915        -0.321365
 C         2.702111        -0.328825        -0.571780
 C         2.761945        -0.271536        -2.189563
 C         2.943257        -1.695571        -2.739263
 O         1.753529        -2.026192        -3.497234
 C         0.686129        -1.324680        -3.024083
 C         1.187262        -0.050819        -2.227494
 H         0.514907        -0.189153         1.349405
 H         0.403861         1.393062         0.430814
 H        -0.736852         0.054441        -0.076390
 H         3.351856        -0.043253         0.367613
 H         3.365354         0.487162        -2.623095
 H         3.652180        -1.763673        -3.617731
 H         3.052270        -2.554141        -2.029954
 H        -0.004220        -1.063588        -3.793014
 H         0.083183        -1.913613        -2.357468
 H         0.756777         0.930126        -2.539003
