19
Iteration:  1041charge 0 multiplicity 1
 C         0.384680         0.677476         0.477842
 C         1.151034        -0.176733        -0.561599
 O         2.118858        -1.130707        -0.058073
 C         2.630397        -0.082571        -0.876908
 C         2.393637        -0.301441        -2.389275
 C         3.018515        -1.413906        -3.123850
 O         1.855024        -2.125108        -3.675708
 C         0.707742        -2.093875        -2.635566
 C         0.935123        -0.647773        -2.084612
 H         0.245746         1.698431         0.114503
 H        -0.706504         0.320580         0.576380
 H         0.931214         0.740293         1.422344
 H         3.458462         0.592651        -0.379794
 H         2.560005         0.618458        -2.973964
 H         3.730224        -1.275424        -3.941287
 H         3.554580        -2.164439        -2.509002
 H        -0.250140        -2.236748        -2.961654
 H         0.889070        -2.861445        -1.880170
 H         0.296826         0.002059        -2.637549
