19
Iteration:  2203charge 0 multiplicity 1
 C         0.208684         0.035873         0.372883
 C         1.224884        -0.129244        -0.676475
 O         2.223792        -1.114893        -0.316899
 C         2.723189         0.108897        -0.974934
 C         2.512278        -0.193497        -2.458962
 C         2.968830        -1.589699        -2.948487
 O         1.779951        -2.368504        -3.100022
 C         0.610342        -1.650392        -2.705398
 C         1.020426        -0.273795        -2.175151
 H        -0.349810         0.923252         0.211475
 H        -0.631628        -0.782890         0.590274
 H         0.805722         0.022781         1.236280
 H         3.494439         0.750156        -0.323024
 H         2.772918         0.601265        -3.189700
 H         3.477566        -1.475537        -3.916790
 H         3.662593        -1.867050        -2.141589
 H         0.070967        -1.639118        -3.676263
 H        -0.056445        -2.248127        -1.954242
 H         0.423111         0.627689        -2.596854
