19
Iteration:  3047
 C         0.239013         0.341294         0.489232
 C         1.232635        -0.144514        -0.604456
 O         2.117883        -1.206161        -0.244276
 C         2.654942        -0.016768        -0.903002
 C         2.527557        -0.213633        -2.380181
 C         2.970536        -1.578976        -2.951337
 O         1.803112        -2.233946        -3.515712
 C         0.750535        -1.816555        -2.703892
 C         0.984485        -0.357045        -2.118271
 H        -0.471334         0.860936        -0.124139
 H        -0.144055        -0.501380         1.088916
 H         0.657864         1.155611         1.196131
 H         3.310422         0.566511        -0.434755
 H         2.734140         0.608865        -3.081772
 H         3.669734        -1.394316        -3.753942
 H         3.461303        -2.093648        -2.133667
 H        -0.072003        -1.705101        -3.294058
 H         0.491071        -2.530577        -1.872813
 H         0.260591         0.382537        -2.606983
