19
Iteration:  3789
 C         0.339067         0.597787         0.373852
 C         1.156524        -0.222018        -0.573163
 O         1.862506        -1.461811        -0.129453
 C         2.611322        -0.446409        -0.717912
 C         2.662582        -0.360270        -2.177555
 C         3.053745        -1.508161        -3.084403
 O         1.762429        -1.949957        -3.676337
 C         0.706056        -1.659969        -2.759902
 C         1.113093        -0.281347        -2.140662
 H         0.629562         1.602578         0.372843
 H        -0.692032         0.432759         0.043368
 H         0.461370         0.235577         1.462341
 H         3.343245         0.202466        -0.088347
 H         3.091983         0.636534        -2.484800
 H         3.650484        -1.169482        -4.001076
 H         3.525277        -2.396833        -2.676577
 H        -0.234257        -1.769229        -3.455177
 H         0.579848        -2.451236        -1.981026
 H         0.873205         0.698836        -2.579821
