19
Iteration:  1457charge 0 multiplicity 1
 C         0.253498         0.390277         0.351780
 C         1.194169        -0.218392        -0.658138
 O         2.159689        -1.240463        -0.217678
 C         2.737813        -0.118056        -0.817233
 C         2.526698        -0.191838        -2.416382
 C         2.978732        -1.399481        -3.101617
 O         1.867312        -2.334023        -3.282958
 C         0.585084        -1.785459        -2.614002
 C         0.951827        -0.347073        -2.176890
 H        -0.316218         1.131676        -0.072095
 H        -0.507010        -0.421491         0.586710
 H         0.784578         0.875283         1.273411
 H         3.415656         0.511261        -0.242721
 H         2.736966         0.820969        -2.960204
 H         3.480995        -1.161689        -4.074260
 H         3.727038        -1.953460        -2.476920
 H        -0.069476        -1.725652        -3.477144
 H         0.186016        -2.409691        -1.873714
 H         0.348019         0.430925        -2.711904
