19
Iteration:  4492
 C         0.212407         0.411916         0.243275
 C         1.217786        -0.262648        -0.659106
 O         1.760673        -1.502619        -0.175913
 C         2.712917        -0.549943        -0.552108
 C         2.789475        -0.403078        -2.107562
 C         3.016699        -1.530355        -3.096519
 O         1.716184        -2.108012        -3.318900
 C         0.691396        -1.226111        -3.062326
 C         1.237129        -0.129114        -2.198570
 H         0.765848         0.399017         1.302418
 H        -0.093696         1.485242         0.115335
 H        -0.717858        -0.174103         0.446073
 H         3.366365        -0.156145         0.114994
 H         3.456350         0.457590        -2.357771
 H         3.385186        -1.007915        -4.004221
 H         3.726237        -2.239183        -2.688936
 H         0.294618        -0.880083        -3.951346
 H        -0.147194        -1.736477        -2.504290
 H         0.738048         0.754050        -2.588366
