19
Iteration:    92charge 0 multiplicity 1
 C         0.156486         0.378958         0.262769
 C         1.285394        -0.129834        -0.567502
 O         2.365379        -1.147672        -0.113517
 C         2.751248         0.008843        -0.860353
 C         2.447772        -0.184928        -2.378440
 C         2.946707        -1.478962        -3.014737
 O         1.830832        -2.352956        -3.407015
 C         0.533173        -1.831191        -2.767334
 C         0.912912        -0.523684        -2.040209
 H         0.558985         1.446004         0.401655
 H        -0.811798         0.194963        -0.238913
 H        -0.063999         0.095970         1.364098
 H         3.747640         0.592674        -0.389744
 H         2.564034         0.742291        -2.989066
 H         3.547171        -1.206747        -3.939403
 H         3.856726        -1.920857        -2.418499
 H        -0.208625        -1.482354        -3.621387
 H        -0.022912        -2.640719        -2.267038
 H         0.246682         0.186229        -2.409244
