19
Iteration:   434
 C         0.342165         0.629642         0.431230
 C         1.143985        -0.151192        -0.613255
 O         2.123708        -1.157047        -0.116317
 C         2.568880        -0.020554        -0.816007
 C         2.475897        -0.272493        -2.330428
 C         2.989795        -1.451948        -3.148913
 O         1.789118        -2.203986        -3.645205
 C         0.831454        -2.050611        -2.629701
 C         0.939118        -0.570966        -2.073386
 H         0.170018         1.603270         0.194682
 H        -0.772027         0.165764         0.759933
 H         0.995817         0.545122         1.282931
 H         3.187981         0.684805        -0.409499
 H         2.757023         0.673165        -2.837704
 H         3.648949        -1.317111        -3.949201
 H         3.534175        -2.125835        -2.380829
 H        -0.070423        -2.348565        -3.183823
 H         1.106691        -2.730553        -1.784442
 H         0.284374         0.158774        -2.582877
