19
Iteration:  2634
 C         0.416175         0.515123         0.367724
 C         1.128042        -0.256040        -0.674595
 O         2.029864        -1.308495        -0.185937
 C         2.630249        -0.146335        -0.832031
 C         2.380329        -0.174454        -2.350630
 C         2.928424        -1.261545        -3.274258
 O         2.003859        -2.346834        -3.150543
 C         0.750889        -1.823300        -2.717877
 C         0.917786        -0.479803        -2.159420
 H        -0.257816         1.498826         0.064465
 H        -0.309085        -0.007527         0.929874
 H         1.337630         0.971808         0.898522
 H         3.348566         0.409800        -0.068648
 H         2.702623         0.875814        -2.712271
 H         3.143729        -1.098746        -4.352784
 H         3.831653        -1.638278        -2.682911
 H         0.062863        -1.799384        -3.550499
 H         0.379362        -2.561971        -2.007193
 H         0.345108         0.210672        -2.667347
