19
Iteration:  1653charge 0 multiplicity 1
 C         0.295307         0.265771         0.410404
 C         1.156042        -0.219846        -0.656182
 O         2.333853        -1.058196        -0.121895
 C         2.616305         0.083345        -0.902995
 C         2.536658        -0.256526        -2.335864
 C         2.913148        -1.697691        -2.758084
 O         1.757054        -2.041806        -3.667323
 C         0.652673        -1.866293        -2.724710
 C         0.953672        -0.453089        -2.208522
 H        -0.479721         0.855031        -0.022262
 H        -0.169007        -0.494744         1.159099
 H         0.989863         0.918875         1.131585
 H         3.573273         0.770980        -0.652786
 H         2.890430         0.366845        -3.048961
 H         3.863467        -1.682322        -3.428060
 H         2.934176        -2.490978        -1.963948
 H        -0.371480        -1.881268        -3.321203
 H         0.541341        -2.543384        -1.812067
 H         0.239304         0.399309        -2.546299
