19
Iteration:  2079charge 0 multiplicity 1
 C         0.252009         0.417261         0.359803
 C         1.273245        -0.148869        -0.600525
 O         2.040452        -1.324920        -0.285629
 C         2.742022        -0.183515        -0.830879
 C         2.429756        -0.142205        -2.382025
 C         2.902209        -1.318935        -3.345155
 O         1.975148        -2.393614        -2.947857
 C         0.691599        -1.757170        -2.692704
 C         0.949588        -0.362246        -2.217468
 H        -0.393349         1.027758        -0.141040
 H        -0.291110        -0.456737         0.854311
 H         0.761255         1.002391         1.234415
 H         3.521265         0.249585        -0.241890
 H         2.715623         0.793305        -2.786109
 H         2.904387        -0.973739        -4.405160
 H         3.917360        -1.637174        -3.142119
 H         0.078574        -1.734309        -3.664179
 H         0.250890        -2.360160        -1.933215
 H         0.352447         0.396247        -2.749971
