19
Iteration:  2300charge 0 multiplicity 1
 C         0.432072         0.558487         0.490864
 C         1.179677        -0.182846        -0.632305
 O         1.928298        -1.281784        -0.200397
 C         2.643019        -0.159748        -0.944585
 C         2.435690        -0.135101        -2.471441
 C         2.940443        -1.249565        -3.288357
 O         2.054241        -2.415870        -3.014712
 C         0.721661        -1.943773        -2.810536
 C         0.891159        -0.445880        -2.101291
 H        -0.006313         1.447241         0.217239
 H        -0.491747        -0.078192         0.868670
 H         1.069335         0.617213         1.320485
 H         3.683448         0.334702        -0.406072
 H         2.605514         0.890311        -2.797306
 H         2.936709        -0.942033        -4.331952
 H         3.924220        -1.590125        -2.957637
 H         0.280283        -1.659422        -3.778309
 H         0.155296        -2.685160        -2.389604
 H         0.146111         0.388885        -2.431903
