19
Iteration:  3380
 C         0.322127         0.381617         0.443422
 C         1.165871        -0.229807        -0.690075
 O         2.135428        -1.394526        -0.390218
 C         2.618895        -0.133611        -0.774430
 C         2.589267        -0.184020        -2.315617
 C         3.039775        -1.537833        -2.854036
 O         1.820716        -2.226154        -3.382341
 C         0.572556        -1.606797        -2.794649
 C         0.977451        -0.272320        -2.198235
 H         0.721305         1.437959         0.916879
 H        -0.713663         0.599966         0.198569
 H         0.313240        -0.223841         1.248431
 H         3.364640         0.269705        -0.140654
 H         2.967058         0.652924        -2.862346
 H         3.780767        -1.387002        -3.615700
 H         3.524962        -2.092854        -2.080775
 H        -0.317624        -1.542093        -3.508032
 H         0.181651        -2.466146        -2.170471
 H         0.396403         0.543080        -2.663865
