19
Iteration:  2244charge 0 multiplicity 1
 C         0.211396         0.265801         0.264877
 C         1.257445        -0.272692        -0.686833
 O         2.244773        -1.187745        -0.206757
 C         2.690980         0.022422        -0.831695
 C         2.488916        -0.205329        -2.384863
 C         2.904387        -1.426918        -3.165540
 O         1.832197        -2.381918        -3.129342
 C         0.638323        -1.710162        -2.648214
 C         0.990723        -0.351182        -2.147761
 H        -0.465660         0.845667        -0.287215
 H        -0.380367        -0.596636         0.775541
 H         0.609827         0.842915         1.077405
 H         3.551834         0.765826        -0.338424
 H         2.736601         0.712302        -2.896803
 H         3.182905        -1.192383        -4.174492
 H         3.763701        -1.953279        -2.736436
 H         0.011357        -1.466185        -3.488280
 H         0.168879        -2.332193        -1.983424
 H         0.358292         0.491315        -2.591957
