19
Iteration:  4807charge 0 multiplicity 1
 C         0.149411         0.406402         0.231025
 C         1.262908        -0.246466        -0.655734
 O         1.756188        -1.562713        -0.175091
 C         2.737816        -0.590859        -0.528528
 C         2.736111        -0.355784        -2.195683
 C         2.967321        -1.465276        -3.131211
 O         1.743609        -2.153944        -3.213465
 C         0.723063        -1.173207        -3.044322
 C         1.250449        -0.111965        -2.176416
 H         0.260561         0.041661         1.369820
 H         0.303966         1.459525         0.181704
 H        -0.902947         0.214101        -0.234176
 H         3.671502        -0.338709         0.226975
 H         3.224403         0.522489        -2.427350
 H         3.436354        -0.995942        -3.950491
 H         3.739323        -2.256323        -2.916682
 H         0.347675        -0.962321        -4.154101
 H         0.024952        -1.831539        -2.591256
 H         0.908479         0.918665        -2.497481
