19
Iteration:  4226charge 0 multiplicity 1
 C         0.257725         0.303438         0.212210
 C         1.278804        -0.163694        -0.633069
 O         1.820044        -1.535667        -0.259184
 C         2.734882        -0.383718        -0.633391
 C         2.777914        -0.294201        -2.164184
 C         2.979472        -1.662009        -2.939193
 O         1.700431        -2.000328        -3.464220
 C         0.640784        -1.291318        -2.860099
 C         1.179368        -0.143262        -2.172637
 H         0.162094        -0.184948         1.127520
 H         0.218890         1.417716         0.352735
 H        -0.728159        -0.053556        -0.285289
 H         3.466626        -0.094533         0.183902
 H         3.365127         0.567552        -2.395836
 H         3.715171        -1.695777        -3.777055
 H         3.277409        -2.349962        -2.139228
 H        -0.056095        -1.151850        -3.648959
 H         0.254048        -2.186478        -2.178336
 H         0.750353         0.798856        -2.617332
