19
Iteration:  1313charge 0 multiplicity 1
 C         0.316745         0.432232         0.476013
 C         1.173257        -0.140274        -0.635369
 O         2.078689        -1.257388        -0.232120
 C         2.658687        -0.132038        -0.914060
 C         2.529140        -0.164733        -2.365726
 C         3.024578        -1.458580        -3.170265
 O         1.901781        -2.326134        -3.297607
 C         0.628598        -1.782073        -2.642885
 C         0.937630        -0.404360        -2.164572
 H        -0.271441         1.147215         0.071610
 H        -0.383378        -0.366585         0.860876
 H         0.840419         0.985439         1.212338
 H         3.384472         0.521390        -0.366486
 H         2.647792         0.814338        -2.918312
 H         3.456124        -1.151385        -4.134813
 H         3.844786        -1.943333        -2.611551
 H        -0.083454        -1.856077        -3.465099
 H         0.277417        -2.540027        -1.838966
 H         0.326117         0.389924        -2.562776
