19
Iteration:  1138
 C         0.211352         0.172774         0.405242
 C         1.232207        -0.128928        -0.691043
 O         2.202330        -1.114508        -0.252755
 C         2.665868         0.030434        -0.891985
 C         2.560276        -0.225532        -2.482314
 C         2.936272        -1.643008        -2.930775
 O         1.726904        -2.229541        -3.318032
 C         0.667033        -1.752637        -2.634927
 C         1.078292        -0.258259        -2.241164
 H        -0.630681         0.746963         0.096707
 H        -0.152840        -0.914872         0.829854
 H         0.709969         0.503276         1.301713
 H         3.485539         0.667888        -0.312432
 H         2.799064         0.694343        -3.035662
 H         3.605546        -1.685211        -3.789121
 H         3.407718        -2.185085        -2.109135
 H        -0.150502        -1.895366        -3.306322
 H         0.416383        -2.289445        -1.615963
 H         0.376891         0.408086        -2.564042
