19
Iteration:  1545
 C         0.305992         0.438088         0.413467
 C         1.203201        -0.142440        -0.680498
 O         2.059242        -1.383922        -0.284345
 C         2.655092        -0.179269        -0.908644
 C         2.490324        -0.111136        -2.398800
 C         2.874191        -1.340331        -3.337113
 O         2.021406        -2.376312        -2.885594
 C         0.719119        -1.766626        -2.690012
 C         0.872339        -0.328220        -2.188958
 H         0.226774         1.506399         0.452073
 H        -0.724734         0.021186         0.266069
 H         0.735602         0.164989         1.464342
 H         3.648340         0.187418        -0.391284
 H         2.748898         0.878955        -2.819422
 H         3.040878        -1.141404        -4.396396
 H         3.902912        -1.707094        -3.141967
 H         0.273282        -1.825734        -3.705868
 H         0.136127        -2.368925        -2.066240
 H         0.228686         0.469880        -2.672543
