19
Iteration:  4939
 C         0.217959         0.399580         0.190632
 C         1.226885        -0.315500        -0.587304
 O         1.789891        -1.520857        -0.140548
 C         2.718483        -0.458926        -0.566211
 C         2.805252        -0.365814        -2.155715
 C         3.056970        -1.560515        -2.963554
 O         1.677553        -2.131479        -3.410054
 C         0.659534        -1.131428        -3.150616
 C         1.180015        -0.219334        -2.095558
 H         0.817172         0.840937         1.026297
 H        -0.344182         1.102109        -0.385759
 H        -0.503059        -0.347535         0.620074
 H         3.608455        -0.154512         0.095667
 H         3.242884         0.605368        -2.269892
 H         3.558037        -1.250272        -3.959508
 H         3.582363        -2.390314        -2.357432
 H         0.441973        -0.465628        -4.067341
 H        -0.225529        -1.663183        -2.791269
 H         0.896663         0.841384        -2.387679
