19
Iteration:  3161charge 0 multiplicity 1
 C         0.226977         0.291534         0.287625
 C         1.286251        -0.270725        -0.643703
 O         2.143765        -1.316965        -0.207909
 C         2.692889        -0.061039        -0.835245
 C         2.623655        -0.173835        -2.355983
 C         2.933410        -1.441865        -3.175564
 O         1.840843        -2.304184        -3.055789
 C         0.549286        -1.602015        -2.815159
 C         1.006141        -0.329705        -2.152137
 H        -0.437611        -0.673823         0.631077
 H         0.744420         0.872373         1.062721
 H        -0.528205         0.892731        -0.151651
 H         3.427249         0.554885        -0.182350
 H         2.972251         0.736874        -2.845186
 H         3.103831        -1.273592        -4.302707
 H         3.708562        -2.017233        -2.779536
 H         0.107953        -1.456091        -3.776372
 H        -0.056488        -2.311463        -2.175997
 H         0.335726         0.532633        -2.199274
