19
Iteration:  2315
 C         0.466496         0.529097         0.476420
 C         1.198620        -0.204490        -0.592674
 O         1.953346        -1.351787        -0.242053
 C         2.598432        -0.147194        -0.879297
 C         2.368299        -0.139474        -2.424099
 C         2.929786        -1.288928        -3.331675
 O         2.098334        -2.339444        -2.938192
 C         0.737397        -1.841361        -2.771149
 C         0.845097        -0.439159        -2.267851
 H         0.383834         1.665365         0.114837
 H        -0.462139         0.129939         0.719461
 H         1.104171         0.451327         1.442773
 H         3.288814         0.278348        -0.217240
 H         2.589540         0.856783        -2.897990
 H         2.842897        -1.171392        -4.408517
 H         3.972364        -1.567152        -3.112023
 H         0.224786        -1.902052        -3.696420
 H         0.261052        -2.584546        -1.944166
 H         0.186826         0.144107        -2.851163
