19
Iteration:  1840
 C         0.271802         0.278659         0.368320
 C         1.294700        -0.245720        -0.601753
 O         2.213547        -1.188994        -0.063809
 C         2.769177        -0.004014        -0.938551
 C         2.447710        -0.121158        -2.458519
 C         2.938786        -1.444452        -3.103672
 O         1.844158        -2.445494        -3.069372
 C         0.598515        -1.634637        -2.962542
 C         0.931040        -0.416056        -2.120015
 H        -0.434812         1.019856        -0.030931
 H        -0.342260        -0.633595         0.876681
 H         0.791888         0.765713         1.290890
 H         3.235551         0.729127        -0.464655
 H         2.651122         0.654526        -3.056893
 H         2.959408        -1.442047        -4.212938
 H         3.835622        -1.861527        -2.714922
 H         0.242785        -1.237316        -3.988059
 H        -0.217643        -2.381618        -2.662234
 H         0.292641         0.452647        -2.319781
