19
Iteration:  4401charge 0 multiplicity 1
 C         0.166769         0.367422         0.364394
 C         1.246827        -0.175927        -0.640012
 O         1.820588        -1.455807        -0.245463
 C         2.688798        -0.422670        -0.612931
 C         2.752561        -0.387698        -2.153886
 C         3.010949        -1.685147        -2.854568
 O         1.790553        -1.979664        -3.628516
 C         0.613992        -1.312117        -2.928564
 C         1.230184        -0.174724        -2.191129
 H         0.498932         0.022439         1.357736
 H         0.121700         1.460129         0.315825
 H        -0.838003        -0.053747        -0.032168
 H         3.571654        -0.002507         0.047564
 H         3.351490         0.439719        -2.485325
 H         3.748481        -1.875073        -3.659776
 H         3.044101        -2.490847        -2.080220
 H        -0.096915        -0.963188        -3.656047
 H         0.156587        -2.075374        -2.322135
 H         1.082999         0.869865        -2.542634
