19
Iteration:  4772
 C         0.245078         0.425761         0.344294
 C         1.169223        -0.272710        -0.629461
 O         1.732033        -1.547772        -0.291628
 C         2.662112        -0.476855        -0.501851
 C         2.762680        -0.337581        -2.093459
 C         3.005631        -1.527807        -3.120314
 O         1.746966        -2.205093        -3.237699
 C         0.749153        -1.215274        -3.141621
 C         1.258446        -0.145105        -2.198793
 H         0.788091         0.570465         1.339440
 H        -0.028309         1.396349         0.077376
 H        -0.706891        -0.125113         0.645842
 H         3.453486        -0.154842         0.186385
 H         3.259016         0.470002        -2.493273
 H         3.080260        -1.030672        -4.045703
 H         3.805245        -2.213886        -2.880073
 H         0.646008        -0.623863        -4.163823
 H        -0.233744        -1.687485        -2.922969
 H         0.980417         0.893355        -2.404299
