19
Iteration:  4995
 C         0.241565         0.211650         0.287972
 C         1.249069        -0.200331        -0.689538
 O         1.663131        -1.525634        -0.351477
 C         2.661754        -0.456418        -0.578204
 C         2.900669        -0.302564        -2.179919
 C         2.932049        -1.581262        -2.981897
 O         1.695993        -2.139114        -3.140701
 C         0.742195        -1.166975        -3.086342
 C         1.285537        -0.071996        -2.184898
 H         0.733657         0.335148         1.197147
 H        -0.136307         1.294831         0.026381
 H        -0.587611        -0.470442         0.383844
 H         3.303916        -0.136162         0.141145
 H         3.393446         0.680454        -2.381742
 H         3.469104        -1.528294        -4.004790
 H         3.592068        -2.405610        -2.446049
 H         0.387588        -0.777014        -4.034821
 H        -0.129872        -1.597522        -2.656819
 H         1.007731         0.918560        -2.621626
