19
Iteration:  2851charge 0 multiplicity 1
 C         0.167410         0.200844         0.377228
 C         1.196603        -0.249864        -0.641818
 O         2.256056        -1.204070        -0.275294
 C         2.674340         0.048507        -0.872701
 C         2.638960        -0.161306        -2.442210
 C         2.956294        -1.485112        -3.082881
 O         1.737192        -2.360078        -3.148849
 C         0.620392        -1.683355        -2.723874
 C         1.056941        -0.360754        -2.178198
 H        -0.543230         0.830832        -0.105471
 H        -0.216179        -0.606938         0.980349
 H         0.686573         1.013473         1.031865
 H         3.234206         0.765591        -0.214492
 H         2.841350         0.811528        -2.980746
 H         3.302841        -1.295760        -4.156595
 H         3.795413        -2.045022        -2.517742
 H        -0.150979        -1.635257        -3.533863
 H         0.121073        -2.138861        -1.859843
 H         0.260826         0.484914        -2.313937
