19
Iteration:  1913
 C         0.247395         0.048244         0.379601
 C         1.280965        -0.038074        -0.727953
 O         2.171560        -1.241496        -0.418004
 C         2.737758        -0.012021        -0.995295
 C         2.538971        -0.144052        -2.448114
 C         2.949303        -1.482914        -2.986425
 O         1.858341        -2.367178        -2.818572
 C         0.563153        -1.644883        -2.788440
 C         0.915214        -0.220130        -2.198690
 H        -0.476892         0.752674         0.303062
 H        -0.186678        -0.941095         0.387156
 H         0.714162         0.085765         1.433292
 H         3.454516         0.583359        -0.268658
 H         2.908902         0.719747        -3.098951
 H         3.380699        -1.483532        -4.047222
 H         3.656996        -2.094311        -2.365266
 H         0.082372        -1.557668        -3.798344
 H        -0.151184        -2.134838        -2.187522
 H         0.298801         0.611190        -2.611823
