19
Iteration:  1298
 C         0.311504         0.427369         0.387945
 C         1.206067        -0.176588        -0.636267
 O         2.066837        -1.341799        -0.353123
 C         2.658473        -0.096160        -0.806154
 C         2.471560        -0.200669        -2.445202
 C         3.010882        -1.349839        -3.152147
 O         1.860144        -2.315678        -3.158294
 C         0.694484        -1.811981        -2.593237
 C         0.946779        -0.318317        -2.216278
 H        -0.485112         1.308261         0.031558
 H        -0.365048        -0.413387         0.862437
 H         0.975043         0.815569         1.196310
 H         3.624175         0.209728        -0.160606
 H         2.894974         0.694190        -2.779472
 H         3.300076        -1.161978        -4.256497
 H         3.915723        -1.902957        -2.699252
 H        -0.211646        -1.967586        -3.224962
 H         0.518053        -2.288159        -1.684883
 H         0.350895         0.407835        -2.798472
