19
Iteration:  1083
 C         0.248299         0.491488         0.301860
 C         1.231803        -0.266073        -0.531452
 O         2.249687        -1.112818        -0.012220
 C         2.653953         0.002490        -0.903498
 C         2.525503        -0.276462        -2.400746
 C         2.947675        -1.582918        -3.033749
 O         1.745732        -2.086470        -3.711605
 C         0.680463        -1.932327        -2.559902
 C         0.983060        -0.525001        -2.089455
 H        -0.393806         1.114123        -0.247804
 H        -0.526868        -0.237747         0.882174
 H         0.767907         1.159144         0.909337
 H         3.330934         0.818526        -0.379164
 H         2.583845         0.680305        -2.902518
 H         3.758070        -1.453749        -3.718341
 H         3.316946        -2.255545        -2.259701
 H        -0.204298        -2.118055        -3.081252
 H         0.783916        -2.748149        -1.795134
 H         0.359631         0.173868        -2.462069
