19
Iteration:  4264
 C         0.264738         0.523565         0.415980
 C         1.211263        -0.223151        -0.579191
 O         1.737028        -1.543771        -0.345100
 C         2.626923        -0.405280        -0.626618
 C         2.764486        -0.296060        -2.163254
 C         3.055473        -1.637990        -2.970140
 O         1.819138        -1.977455        -3.590785
 C         0.691239        -1.496537        -2.873030
 C         1.136627        -0.174660        -2.167594
 H         0.638868         0.205654         1.459924
 H         0.275712         1.610609         0.347692
 H        -0.728256         0.229114         0.203466
 H         3.384364        -0.218497         0.114357
 H         3.352477         0.634683        -2.450654
 H         3.840016        -1.674843        -3.745383
 H         3.234675        -2.506155        -2.207112
 H        -0.126372        -1.172583        -3.633369
 H         0.335496        -2.102033        -2.095829
 H         0.822095         0.724520        -2.697379
