19
Iteration:  4309
 C         0.307479         0.644715         0.489410
 C         1.153090        -0.216428        -0.566403
 O         1.728398        -1.519241        -0.106844
 C         2.591072        -0.407568        -0.555986
 C         2.732155        -0.405662        -2.153315
 C         3.011714        -1.679747        -3.026015
 O         1.861581        -1.853404        -3.814347
 C         0.711995        -1.589542        -3.026542
 C         1.179152        -0.275153        -2.104198
 H         0.977757         0.868064         1.332766
 H         0.043683         1.606601        -0.028888
 H        -0.620315         0.227831         0.739447
 H         3.288563        -0.140314         0.118125
 H         3.338866         0.461286        -2.545153
 H         3.832486        -1.384108        -3.682786
 H         3.369439        -2.522876        -2.321105
 H        -0.154558        -1.252340        -3.732155
 H         0.469822        -2.459615        -2.465639
 H         0.710311         0.580320        -2.599966
