19
Iteration:  2033charge 0 multiplicity 1
 C         0.438435         0.420743         0.404210
 C         1.167874        -0.210968        -0.694819
 O         1.977588        -1.342066        -0.258609
 C         2.577941        -0.143308        -0.822170
 C         2.498549        -0.136751        -2.410991
 C         2.938312        -1.295764        -3.248030
 O         1.988096        -2.343491        -3.047004
 C         0.703957        -1.858379        -2.621170
 C         0.934694        -0.335092        -2.269845
 H         0.066040         1.355541        -0.172059
 H        -0.344249        -0.172088         0.749157
 H         1.078647         0.755151         1.370278
 H         3.267120         0.343115        -0.230834
 H         2.596162         0.955124        -2.771971
 H         2.980515        -1.081782        -4.355171
 H         3.948417        -1.683232        -2.998534
 H         0.020962        -2.037971        -3.506371
 H         0.379238        -2.348680        -1.766408
 H         0.386410         0.459250        -2.697953
