19
Iteration:  1954charge 0 multiplicity 1
 C         0.277599         0.233135         0.330206
 C         1.251039        -0.302747        -0.668185
 O         2.282236        -1.188675        -0.221684
 C         2.601437         0.072924        -0.847283
 C         2.550580        -0.174795        -2.410550
 C         2.913413        -1.478559        -3.133305
 O         1.825709        -2.380066        -2.973778
 C         0.571096        -1.698766        -2.860690
 C         0.973569        -0.356318        -2.168889
 H         0.189299         1.430267         0.302799
 H        -0.636591        -0.234567         0.053702
 H         0.588508        -0.077075         1.320949
 H         3.241089         0.968768        -0.378652
 H         2.967420         0.821906        -2.936393
 H         3.037341        -1.209635        -4.220366
 H         3.866894        -1.829447        -2.640097
 H        -0.000222        -1.596347        -3.851194
 H        -0.079346        -2.414726        -2.250762
 H         0.388946         0.566086        -2.385774
