19
Iteration:  1801charge 0 multiplicity 1
 C         0.308591         0.429824         0.472517
 C         1.196446        -0.242959        -0.654034
 O         2.170039        -1.241745        -0.230359
 C         2.637788         0.010421        -0.843377
 C         2.515248        -0.181532        -2.384219
 C         2.983919        -1.408432        -3.117912
 O         1.852986        -2.417964        -3.261911
 C         0.616361        -1.817840        -2.749275
 C         0.967785        -0.410106        -2.165829
 H         0.024535         1.504548         0.135246
 H        -0.595599        -0.077197         0.614869
 H         0.848143         0.450951         1.406650
 H         3.228335         0.728032        -0.151240
 H         2.822947         0.810823        -2.952365
 H         3.247117        -0.880906        -4.029760
 H         3.956813        -1.911758        -2.895956
 H         0.024184        -1.636633        -3.621764
 H         0.077499        -2.453647        -2.041440
 H         0.235772         0.328063        -2.510930
