19
Iteration:  3111
 C         0.212455         0.235763         0.461112
 C         1.213776        -0.169727        -0.588545
 O         2.111643        -1.200694        -0.296198
 C         2.741382         0.001574        -0.895974
 C         2.572602        -0.196663        -2.425385
 C         3.091574        -1.525178        -3.031310
 O         1.786014        -2.327598        -3.270421
 C         0.605881        -1.687841        -2.760213
 C         0.957336        -0.353196        -2.106317
 H        -0.699243         0.040327         0.009257
 H         0.356962        -0.080610         1.530642
 H         0.224347         1.443901         0.599383
 H         3.373683         0.515675        -0.308698
 H         2.765040         0.718477        -3.021615
 H         3.496203        -1.450563        -4.022891
 H         3.742633        -2.301508        -2.427558
 H         0.073755        -1.428533        -3.679069
 H         0.051924        -2.374986        -2.184344
 H         0.462197         0.583538        -2.499589
