19
Iteration:  1487charge 0 multiplicity 1
 C         0.354583         0.518515         0.413050
 C         1.191749        -0.277199        -0.621355
 O         2.030520        -1.368790        -0.299738
 C         2.682709        -0.108738        -0.878774
 C         2.443964        -0.130507        -2.412389
 C         2.945423        -1.324207        -3.209833
 O         1.985431        -2.368055        -3.045272
 C         0.684120        -1.775003        -2.708367
 C         0.921825        -0.391647        -2.160396
 H        -0.005838         1.347197        -0.175539
 H        -0.581895        -0.032977         0.801259
 H         0.939903         0.796828         1.320830
 H         3.471944         0.213019        -0.319379
 H         2.640162         0.703706        -2.927892
 H         3.041872        -0.999740        -4.247094
 H         3.793910        -1.712150        -2.687430
 H         0.288578        -1.681056        -3.736540
 H         0.076618        -2.488242        -2.131015
 H         0.337819         0.369113        -2.661599
