19
Iteration:  4832charge 0 multiplicity 1
 C         0.196253         0.397167         0.246547
 C         1.236730        -0.269302        -0.603212
 O         1.729321        -1.599946        -0.407638
 C         2.675130        -0.415264        -0.602779
 C         2.832988        -0.284013        -2.109795
 C         3.032232        -1.569232        -3.028781
 O         1.717964        -2.151061        -3.260041
 C         0.649343        -1.254554        -2.929719
 C         1.261564        -0.073977        -2.133192
 H         0.071349        -0.139323         1.167226
 H         0.401533         1.594554         0.455036
 H        -0.712106         0.336452        -0.369321
 H         3.541008        -0.310839         0.018874
 H         3.544227         0.651989        -2.305985
 H         3.518103        -1.130346        -3.873232
 H         3.719735        -2.408695        -2.829015
 H         0.276359        -0.973097        -3.929894
 H        -0.031392        -2.010303        -2.541231
 H         0.837874         0.896414        -2.405611
