19
Iteration:  2684
 C         0.255869         0.344174         0.273774
 C         1.199239        -0.183389        -0.665812
 O         2.121769        -1.246225        -0.168900
 C         2.702967        -0.143170        -0.820004
 C         2.506076        -0.164104        -2.395515
 C         2.967156        -1.352628        -3.304077
 O         1.901253        -2.357938        -3.074028
 C         0.685143        -1.763897        -2.663183
 C         0.972262        -0.359890        -2.110483
 H        -0.128343         1.230798        -0.007437
 H        -0.611789        -0.362674         0.303254
 H         0.663375         0.642156         1.229973
 H         3.365652         0.371915        -0.225302
 H         2.776849         0.781098        -2.849190
 H         2.783709        -1.109231        -4.387924
 H         3.953174        -1.804304        -3.240310
 H        -0.019333        -1.668727        -3.594404
 H         0.198943        -2.482071        -1.927002
 H         0.141921         0.408781        -2.408596
