19
Iteration:  3224
 C         0.403357         0.329435         0.516064
 C         1.081682        -0.237543        -0.750620
 O         2.002347        -1.342527        -0.352617
 C         2.636517        -0.207625        -0.847602
 C         2.555083        -0.192903        -2.345550
 C         2.993153        -1.396081        -3.183116
 O         1.942342        -2.336974        -2.891488
 C         0.617755        -1.605093        -2.886460
 C         0.983145        -0.285339        -2.285554
 H         0.442455        -0.376011         1.438632
 H         0.752048         1.288974         0.903306
 H        -0.560438         0.643618         0.292634
 H         3.412223         0.409076        -0.150472
 H         2.964604         0.854673        -2.596805
 H         3.249132        -1.050226        -4.176780
 H         3.909323        -1.804334        -2.743810
 H         0.234614        -1.593564        -4.032816
 H        -0.161017        -2.079059        -2.184314
 H         0.339355         0.579735        -2.675543
