19
Iteration:  3490charge 0 multiplicity 1
 C         0.265756         0.524161         0.350190
 C         1.215873        -0.171468        -0.560871
 O         2.028749        -1.377429        -0.160296
 C         2.679566        -0.109782        -0.726919
 C         2.598258        -0.374004        -2.199552
 C         3.052673        -1.576997        -3.033819
 O         1.760241        -1.988333        -3.745682
 C         0.622855        -1.759555        -2.729373
 C         1.072122        -0.401830        -2.049040
 H        -0.744061         0.811635        -0.219452
 H        -0.109613        -0.206780         1.112198
 H         0.702351         1.441175         0.634774
 H         3.535385         0.426453        -0.157973
 H         2.913521         0.539609        -2.699341
 H         3.842788        -1.319840        -3.762133
 H         3.394831        -2.483844        -2.396644
 H        -0.427752        -1.777322        -3.209857
 H         0.636917        -2.658210        -2.075265
 H         0.492284         0.388791        -2.577634
