19
Iteration:  2024charge 0 multiplicity 1
 C         0.425076         0.471507         0.380483
 C         1.141456        -0.226769        -0.672668
 O         2.042812        -1.299966        -0.227867
 C         2.579930        -0.161531        -0.860852
 C         2.506320        -0.108434        -2.370422
 C         2.916297        -1.309460        -3.217174
 O         1.985234        -2.360221        -3.068593
 C         0.683363        -1.876112        -2.697585
 C         0.922167        -0.359663        -2.239632
 H         0.124062         1.403544         0.178639
 H        -0.423600        -0.167357         0.648713
 H         1.116304         0.554921         1.277934
 H         3.172432         0.392586        -0.266227
 H         2.947157         0.729449        -2.838560
 H         2.932669        -0.813863        -4.251000
 H         3.900077        -1.700977        -2.968738
 H        -0.039776        -2.072744        -3.559352
 H         0.351921        -2.488462        -1.912627
 H         0.322838         0.435036        -2.654773
