19
Iteration:  2535charge 0 multiplicity 1
 C         0.135979         0.184046         0.300733
 C         1.296393        -0.242852        -0.608656
 O         2.287681        -1.238243        -0.309167
 C         2.696193         0.071764        -0.904663
 C         2.533887        -0.114850        -2.411080
 C         2.838615        -1.414170        -3.190146
 O         1.850657        -2.450757        -2.855412
 C         0.655217        -1.659908        -2.778857
 C         1.001912        -0.299753        -2.157825
 H        -0.282016         1.230867        -0.040672
 H        -0.671722        -0.432971         0.123476
 H         0.359718        -0.018373         1.403497
 H         3.615584         0.576751        -0.511843
 H         2.872804         0.830515        -2.959703
 H         2.790368        -1.215635        -4.312736
 H         3.841666        -1.876786        -2.939656
 H         0.145609        -1.617162        -3.830926
 H        -0.090092        -2.256325        -2.108043
 H         0.267036         0.379688        -2.397115
