19
Iteration:  3968charge 0 multiplicity 1
 C         0.331894         0.417581         0.448376
 C         1.169622        -0.228039        -0.624556
 O         1.802906        -1.420081        -0.292643
 C         2.667859        -0.382359        -0.675513
 C         2.768022        -0.301277        -2.206994
 C         2.970849        -1.643097        -2.915721
 O         1.822423        -1.976808        -3.638431
 C         0.648670        -1.500828        -2.850801
 C         1.097797        -0.180074        -2.169851
 H        -0.175183        -0.279969         1.177359
 H         1.051570         0.963549         1.052831
 H        -0.517482         0.957109         0.119006
 H         3.351789        -0.143493         0.097666
 H         3.316819         0.524628        -2.684384
 H         3.773316        -1.602156        -3.592643
 H         3.249039        -2.301899        -2.093492
 H        -0.071312        -1.347955        -3.660274
 H         0.412819        -2.388119        -2.206689
 H         0.684199         0.661808        -2.618085
