19
Iteration:   550
 C         0.249864         0.137370         0.457035
 C         1.219647        -0.200580        -0.651555
 O         2.331754        -1.112731        -0.288096
 C         2.670152         0.090862        -0.945982
 C         2.490105        -0.164590        -2.433891
 C         2.917754        -1.568193        -2.982799
 O         1.803166        -2.457994        -2.984425
 C         0.574447        -1.633898        -2.901632
 C         0.989858        -0.283412        -2.216158
 H        -0.657938         0.854049         0.117594
 H        -0.232568        -0.728092         0.679914
 H         0.805174         0.518398         1.327964
 H         3.312118         0.688088        -0.349930
 H         2.927878         0.533838        -3.082242
 H         3.066685        -1.333131        -4.108855
 H         3.844328        -2.016901        -2.578547
 H         0.248074        -1.449236        -3.930782
 H        -0.230119        -2.099394        -2.307236
 H         0.372115         0.503860        -2.528047
