19
Iteration:   665
 C         0.183550         0.282019         0.307420
 C         1.284049        -0.106080        -0.656374
 O         2.102846        -1.248565        -0.231020
 C         2.716107        -0.032160        -0.923230
 C         2.522839        -0.201539        -2.437852
 C         2.933258        -1.379296        -3.216176
 O         1.872876        -2.405274        -3.126201
 C         0.646558        -1.786365        -2.551812
 C         1.020872        -0.338503        -2.105262
 H        -0.238259         1.261457         0.047380
 H        -0.714774        -0.464641         0.408529
 H         0.720423         0.512514         1.304149
 H         3.552784         0.370861        -0.378565
 H         2.837353         0.847058        -2.851227
 H         2.959259        -0.964620        -4.317274
 H         3.921553        -1.822814        -2.929742
 H         0.032169        -1.751136        -3.459805
 H         0.174439        -2.450591        -1.782102
 H         0.409311         0.531531        -2.549665
