19
Iteration:  2704
 C         0.242032         0.253452         0.388530
 C         1.206020        -0.211522        -0.639173
 O         2.111409        -1.240483        -0.220902
 C         2.735170        -0.012451        -0.884252
 C         2.596027        -0.154838        -2.366204
 C         2.840341        -1.386222        -3.228317
 O         1.923380        -2.369169        -2.995015
 C         0.613926        -1.746985        -2.708754
 C         1.029180        -0.337129        -2.289573
 H        -0.160701         1.237599         0.260811
 H        -0.631449        -0.396145         0.132987
 H         0.645711         0.139123         1.314854
 H         3.461383         0.509204        -0.412783
 H         2.707406         0.729853        -2.883335
 H         2.929793        -1.049470        -4.340045
 H         3.745914        -1.831978        -2.923687
 H        -0.099986        -1.828862        -3.595391
 H         0.116819        -2.285946        -1.772113
 H         0.532494         0.547255        -2.811238
