19
Iteration:  1632charge 0 multiplicity 1
 C         0.276749         0.261571         0.471374
 C         1.259844        -0.119991        -0.630380
 O         2.199262        -1.078790        -0.166037
 C         2.679958         0.101764        -0.830540
 C         2.531955        -0.225894        -2.477183
 C         2.903879        -1.675716        -2.895105
 O         1.770837        -2.195029        -3.562375
 C         0.684366        -1.811992        -2.744676
 C         0.994177        -0.457595        -2.131204
 H        -0.525386         0.844259        -0.025805
 H        -0.215630        -0.712298         0.856600
 H         0.696391         0.772366         1.449780
 H         3.279481         0.882899        -0.179603
 H         2.641706         0.500223        -3.234402
 H         3.775562        -1.702600        -3.709405
 H         3.229365        -2.409437        -2.105406
 H        -0.245506        -1.752553        -3.460864
 H         0.433353        -2.506403        -1.908642
 H         0.391833         0.481424        -2.416392
