19
Iteration:  3188charge 0 multiplicity 1
 C         0.212367         0.339232         0.463845
 C         1.271190        -0.216208        -0.594372
 O         2.100596        -1.340260        -0.356004
 C         2.707484        -0.190106        -0.849489
 C         2.526323        -0.132731        -2.364838
 C         2.914353        -1.380334        -3.173534
 O         1.902109        -2.463493        -2.942335
 C         0.667823        -1.569893        -2.863444
 C         0.972219        -0.234997        -2.235830
 H        -0.165075        -0.410530         1.001233
 H         0.689749         1.169862         1.001815
 H        -0.731570         0.612343        -0.163906
 H         3.517173         0.213896        -0.304147
 H         3.011040         0.783397        -2.769330
 H         2.982981        -1.301529        -4.227607
 H         3.883540        -1.756296        -2.671085
 H         0.387482        -1.412632        -4.060451
 H        -0.145252        -2.084651        -2.375801
 H         0.218609         0.527607        -2.464069
