19
Iteration:  4681
 C         0.186291         0.267283         0.279179
 C         1.207886        -0.243290        -0.644658
 O         1.762516        -1.457829        -0.231907
 C         2.696119        -0.434284        -0.651468
 C         2.823876        -0.376891        -2.183220
 C         3.018588        -1.636595        -3.008504
 O         1.715756        -2.114906        -3.354535
 C         0.693136        -1.207981        -2.979495
 C         1.266634        -0.039290        -2.101449
 H         0.371313         0.187524         1.298271
 H         0.018079         1.358882        -0.091427
 H        -0.673951        -0.292207        -0.017955
 H         3.404242        -0.040196         0.062782
 H         3.656076         0.426402        -2.356315
 H         3.417879        -1.375929        -4.012557
 H         3.565224        -2.342274        -2.414736
 H         0.210272        -0.845872        -3.994795
 H        -0.120861        -1.839567        -2.397918
 H         0.727737         0.845792        -2.444574
