19
Iteration:  2761charge 0 multiplicity 1
 C         0.291825         0.162837         0.414717
 C         1.216361        -0.291823        -0.707560
 O         2.309351        -1.241988        -0.347692
 C         2.670865        -0.013354        -0.897732
 C         2.498472        -0.058576        -2.444304
 C         2.887869        -1.390598        -2.969211
 O         1.822557        -2.416794        -2.830474
 C         0.592347        -1.633675        -2.940402
 C         0.911571        -0.289981        -2.285327
 H         0.191658         1.176599         0.307148
 H        -0.629141        -0.349996         0.703634
 H         0.916873         0.069845         1.363690
 H         3.483462         0.655373        -0.456699
 H         2.869292         0.702470        -3.134567
 H         3.435239        -1.555383        -3.943607
 H         3.574136        -1.785657        -2.197482
 H         0.333897        -1.645504        -4.064992
 H        -0.259836        -2.152434        -2.353810
 H         0.094603         0.475662        -2.636153
