19
Iteration:  2433
 C         0.211778         0.235554         0.404878
 C         1.236940        -0.216133        -0.615554
 O         2.332000        -1.157455        -0.185222
 C         2.647609         0.026076        -0.872671
 C         2.477283        -0.146040        -2.487031
 C         2.989907        -1.494972        -3.090753
 O         1.769098        -2.381480        -3.092197
 C         0.596630        -1.686034        -2.887026
 C         0.967647        -0.386954        -2.151055
 H        -0.575258         0.852566         0.005855
 H        -0.084094        -0.730653         0.938132
 H         0.806804         0.726778         1.243275
 H         3.294422         0.709051        -0.339631
 H         2.700795         0.802534        -2.990497
 H         3.482008        -1.517536        -4.128893
 H         3.626935        -1.996850        -2.338269
 H         0.130757        -1.460562        -3.981729
 H        -0.003733        -2.354176        -2.318696
 H         0.423722         0.484572        -2.483229
