19
Iteration:  3213charge 0 multiplicity 1
 C         0.392012         0.312798         0.466348
 C         1.200306        -0.244334        -0.682200
 O         1.947462        -1.334054        -0.348600
 C         2.597534        -0.150961        -0.835824
 C         2.551600        -0.203983        -2.379322
 C         2.984798        -1.376107        -3.166254
 O         1.887983        -2.280437        -2.865914
 C         0.691125        -1.608918        -2.880665
 C         1.000046        -0.321672        -2.262340
 H         0.393289        -0.556326         1.241790
 H         1.013299         1.121201         0.814593
 H        -0.609750         0.474884         0.220875
 H         3.410293         0.309861        -0.089321
 H         2.788690         0.773236        -2.928481
 H         3.018533        -1.307422        -4.259800
 H         3.892759        -1.870207        -2.805912
 H         0.269620        -1.401258        -3.995355
 H        -0.069124        -2.300556        -2.373516
 H         0.460323         0.574047        -2.727966
