19
Iteration:  4265
 C         0.278588         0.518053         0.406289
 C         1.205992        -0.214953        -0.577328
 O         1.731158        -1.547321        -0.333629
 C         2.627684        -0.403918        -0.626117
 C         2.759339        -0.299467        -2.162388
 C         3.048369        -1.633958        -2.966217
 O         1.825810        -1.973728        -3.594552
 C         0.691920        -1.507877        -2.869025
 C         1.141238        -0.170343        -2.171519
 H         0.650736         0.195664         1.433507
 H         0.265485         1.631610         0.357669
 H        -0.724483         0.223147         0.244952
 H         3.359833        -0.224114         0.068374
 H         3.344610         0.618557        -2.465451
 H         3.816431        -1.663010        -3.744595
 H         3.225756        -2.504402        -2.239917
 H        -0.084471        -1.179146        -3.663940
 H         0.329929        -2.103249        -2.123494
 H         0.804137         0.760583        -2.664372
