19
Iteration:    60charge 0 multiplicity 1
 C         0.249455         0.353347         0.386000
 C         1.185968        -0.263328        -0.625497
 O         2.269736        -1.100513        -0.127298
 C         2.600053         0.076487        -0.907805
 C         2.555156        -0.198404        -2.447438
 C         3.013326        -1.582225        -2.968997
 O         1.784246        -2.209389        -3.493054
 C         0.612209        -1.861620        -2.619606
 C         0.982133        -0.493312        -2.148087
 H         0.726331         1.373130         0.497458
 H        -0.769863         0.605025        -0.030201
 H         0.170661        -0.175383         1.396535
 H         3.249701         0.871636        -0.353684
 H         2.670125         0.675753        -3.121947
 H         3.591432        -1.485494        -3.915987
 H         3.395287        -2.299183        -2.147975
 H        -0.269708        -1.830206        -3.319463
 H         0.579730        -2.574228        -1.791387
 H         0.366381         0.300568        -2.546019
