19
Iteration:  1364
 C         0.262560         0.389947         0.370335
 C         1.173691        -0.330210        -0.565595
 O         2.330179        -1.077237        -0.097803
 C         2.618700         0.077873        -0.915574
 C         2.491067        -0.279914        -2.368106
 C         2.947329        -1.635646        -2.910629
 O         1.757327        -2.142859        -3.564678
 C         0.670590        -1.827275        -2.788151
 C         0.995677        -0.479314        -2.092862
 H        -0.197139         1.468109         0.045566
 H        -0.655720        -0.267187         0.558766
 H         0.789352         0.651578         1.252523
 H         3.307759         0.832948        -0.331773
 H         2.640867         0.454025        -3.082303
 H         3.734758        -1.628625        -3.695832
 H         3.401201        -2.212991        -2.063608
 H        -0.195853        -1.587949        -3.432240
 H         0.417960        -2.688064        -2.262699
 H         0.395738         0.390338        -2.377453
