19
Iteration:  3426charge 0 multiplicity 1
 C         0.183890         0.335662         0.353789
 C         1.216523        -0.116494        -0.609779
 O         2.130516        -1.243201        -0.159386
 C         2.702140        -0.136096        -0.692362
 C         2.630456        -0.333735        -2.240396
 C         3.010697        -1.668734        -3.023210
 O         1.754714        -2.043840        -3.624151
 C         0.609362        -1.702441        -2.740797
 C         1.035393        -0.362795        -2.174140
 H         0.110638         1.449277         0.470269
 H        -0.884208        -0.063871         0.296507
 H         0.675512         0.188683         1.368882
 H         3.598291         0.529898        -0.347910
 H         2.972400         0.582795        -2.724776
 H         3.697399        -1.513064        -3.846969
 H         3.484652        -2.356725        -2.388782
 H        -0.304894        -1.738252        -3.538184
 H         0.122446        -2.365767        -1.942549
 H         0.650513         0.571383        -2.526143
