19
Iteration:  4785charge 0 multiplicity 1
 C         0.228187         0.408845         0.330412
 C         1.179363        -0.278399        -0.597754
 O         1.714428        -1.539368        -0.201676
 C         2.644014        -0.474112        -0.622375
 C         2.891557        -0.375254        -2.148857
 C         3.010987        -1.435392        -3.185359
 O         1.736844        -2.263462        -3.222359
 C         0.701549        -1.161750        -3.126555
 C         1.235054        -0.154670        -2.104086
 H         0.579147         0.401298         1.500397
 H         0.137111         1.392805        -0.091077
 H        -0.816819        -0.103254         0.138423
 H         3.215250        -0.080746         0.373397
 H         3.446947         0.504493        -2.251948
 H         3.352808        -1.042800        -4.103614
 H         3.781841        -2.238667        -3.011798
 H         0.558301        -0.739004        -4.223097
 H        -0.202993        -1.613292        -2.800966
 H         0.974697         0.867114        -2.511227
