19
Iteration:  4504
 C         0.174690         0.456579         0.323975
 C         1.190024        -0.255634        -0.585087
 O         1.753551        -1.562177        -0.236650
 C         2.690135        -0.511574        -0.556168
 C         2.818849        -0.401776        -2.119546
 C         2.987482        -1.498634        -3.197088
 O         1.768924        -2.149091        -3.246911
 C         0.675331        -1.224954        -3.070637
 C         1.274047        -0.137836        -2.170455
 H         0.573618         0.775660         1.374538
 H        -0.032246         1.355228        -0.402780
 H        -0.734993        -0.136731         0.394156
 H         3.333879        -0.178414         0.234174
 H         3.433935         0.549257        -2.322765
 H         3.329944        -1.132290        -4.192716
 H         3.634882        -2.347561        -3.058716
 H         0.299728        -0.848740        -3.981119
 H        -0.137743        -1.868882        -2.580498
 H         1.150162         0.955548        -2.449058
