19
Iteration:  3650
 C         0.268855         0.198782         0.338128
 C         1.257098        -0.238277        -0.626167
 O         2.084780        -1.328646        -0.184328
 C         2.755215        -0.094612        -0.685668
 C         2.696208        -0.293373        -2.324478
 C         2.933660        -1.630650        -2.834093
 O         1.699009        -2.059000        -3.520212
 C         0.548224        -1.503738        -2.980894
 C         1.095106        -0.310699        -2.119759
 H         0.184102        -0.294675         1.273528
 H         0.583950         1.221110         0.592515
 H        -0.773023         0.396822        -0.171658
 H         3.549095         0.439715         0.066468
 H         3.085662         0.576256        -2.925186
 H         3.762627        -1.793131        -3.535847
 H         3.068162        -2.222157        -1.947856
 H        -0.212484        -1.266376        -3.750798
 H        -0.163862        -2.100362        -2.214958
 H         0.671814         0.588701        -2.556287
