19
Iteration:  3402
 C         0.320078         0.311530         0.432446
 C         1.261420        -0.229087        -0.553943
 O         2.002668        -1.300321        -0.233281
 C         2.690289        -0.118643        -0.792028
 C         2.535143        -0.210381        -2.380257
 C         2.942787        -1.575497        -2.935173
 O         1.794096        -2.172453        -3.464837
 C         0.703621        -1.657672        -2.844237
 C         1.056823        -0.283926        -2.182985
 H         0.440992         1.465499         0.689659
 H        -0.669630         0.266618        -0.026212
 H         0.303068        -0.110069         1.358112
 H         3.443510         0.455356        -0.281347
 H         2.939260         0.621166        -2.920751
 H         3.750554        -1.581561        -3.647541
 H         3.310280        -2.099045        -2.066034
 H        -0.201859        -1.613455        -3.529411
 H         0.276893        -2.416937        -2.102847
 H         0.483755         0.612048        -2.468621
