19
Iteration:  3638
 C         0.237835         0.250640         0.351262
 C         1.264222        -0.229703        -0.647442
 O         2.133744        -1.309799        -0.142927
 C         2.714126        -0.176090        -0.740834
 C         2.650322        -0.286651        -2.234015
 C         2.971336        -1.661087        -2.877115
 O         1.702097        -2.113650        -3.509915
 C         0.505440        -1.430363        -2.897444
 C         1.125666        -0.265365        -2.225833
 H         0.122982        -0.545366         1.026800
 H         0.334495         1.217699         0.890086
 H        -0.763278         0.192788        -0.271196
 H         3.399425         0.477580        -0.102994
 H         3.113436         0.600246        -2.743610
 H         3.709277        -1.563122        -3.706213
 H         3.321586        -2.428214        -2.165368
 H        -0.133168        -1.150304        -3.775781
 H         0.070240        -2.242028        -2.193495
 H         0.772656         0.673774        -2.490266
