19
Iteration:  4874charge 0 multiplicity 1
 C         0.299538         0.312912         0.396314
 C         1.290940        -0.120647        -0.678625
 O         1.657446        -1.548894        -0.379789
 C         2.641079        -0.444702        -0.657899
 C         2.803279        -0.301757        -2.108362
 C         3.008455        -1.584984        -2.858139
 O         1.783213        -2.131001        -3.326191
 C         0.703914        -1.293377        -3.056287
 C         1.136062        -0.052830        -2.241842
 H         0.663496        -0.204841         1.307964
 H         0.333694         1.409632         0.666608
 H        -0.775717         0.073537         0.182718
 H         3.453461        -0.448606         0.118529
 H         3.450050         0.398789        -2.597997
 H         3.611479        -1.438669        -3.783999
 H         3.608611        -2.366220        -2.245064
 H         0.177768        -0.953000        -4.077557
 H         0.003693        -1.804062        -2.391544
 H         0.756911         0.904625        -2.661606
