19
Iteration:  3853
 C         0.284695         0.378645         0.416295
 C         1.180892        -0.270244        -0.577988
 O         1.962157        -1.393062        -0.270830
 C         2.658746        -0.247649        -0.704395
 C         2.718916        -0.323825        -2.215468
 C         2.973221        -1.811312        -2.870414
 O         1.772114        -1.927247        -3.632591
 C         0.667318        -1.506699        -2.941176
 C         1.073171        -0.176460        -2.129784
 H        -0.592568         0.895845         0.047267
 H        -0.053628        -0.426456         1.079450
 H         0.774961         1.172225         1.024543
 H         3.364306         0.311122        -0.005229
 H         3.107393         0.561115        -2.775646
 H         3.877593        -1.918537        -3.532774
 H         3.072066        -2.502859        -2.084721
 H        -0.219879        -1.305029        -3.641101
 H         0.467955        -2.160025        -2.037307
 H         0.712977         0.862216        -2.590048
