19
Iteration:    36
 C         0.347850         0.327531         0.516861
 C         1.185419        -0.027574        -0.658546
 O         2.115381        -1.036971        -0.273433
 C         2.635997         0.075201        -0.885252
 C         2.479681        -0.304094        -2.385640
 C         2.940117        -1.637510        -2.921933
 O         1.796780        -2.173199        -3.553246
 C         0.781396        -1.965086        -2.587376
 C         0.963541        -0.453433        -2.220356
 H         0.716055         1.178771         1.219140
 H        -0.597359         0.547390         0.141375
 H         0.156106        -0.662030         1.060507
 H         3.233252         0.951147        -0.292875
 H         2.780930         0.519241        -3.043563
 H         3.654331        -1.556460        -3.730634
 H         3.151936        -2.339278        -2.032848
 H        -0.209064        -2.192326        -3.118578
 H         1.038530        -2.551423        -1.719373
 H         0.419508         0.173083        -2.795125
