19
Iteration:  4167charge 0 multiplicity 1
 C         0.184129         0.251285         0.331751
 C         1.257519        -0.294062        -0.595435
 O         1.941044        -1.445692        -0.203365
 C         2.714628        -0.278989        -0.626035
 C         2.760130        -0.370037        -2.186837
 C         2.932713        -1.713364        -2.800076
 O         1.743655        -2.042883        -3.547452
 C         0.585886        -1.171030        -3.122261
 C         1.205442        -0.173048        -2.147472
 H         0.874804         0.525792         1.228545
 H        -0.308875         1.177796        -0.002119
 H        -0.642443        -0.367901         0.558340
 H         3.522081        -0.133241         0.042184
 H         3.279148         0.476615        -2.719589
 H         3.672979        -1.900002        -3.551701
 H         3.080832        -2.413239        -2.016002
 H         0.049461        -0.652579        -4.003435
 H        -0.143051        -1.915777        -2.647708
 H         0.918251         0.881007        -2.355543
