19
Iteration:  1502
 C         0.384681         0.520023         0.419241
 C         1.147631        -0.194301        -0.627264
 O         2.053479        -1.345927        -0.326933
 C         2.600317        -0.229067        -0.848800
 C         2.469664        -0.132874        -2.399748
 C         2.958040        -1.282047        -3.252564
 O         2.010466        -2.439477        -2.919792
 C         0.685891        -1.807309        -2.847083
 C         0.918649        -0.361832        -2.176541
 H         0.149065         1.554933         0.248407
 H        -0.525904        -0.022646         0.673616
 H         1.104296         0.641992         1.302767
 H         3.315049         0.465761        -0.205178
 H         2.694592         1.014895        -2.597507
 H         2.799019        -1.105474        -4.339159
 H         4.026747        -1.589764        -3.233445
 H         0.044112        -1.679240        -3.695436
 H         0.208406        -2.407003        -2.125855
 H         0.134884         0.396583        -2.509345
