19
Iteration:  1938
 C         0.202606         0.118417         0.397040
 C         1.226855        -0.245223        -0.667643
 O         2.239894        -1.206700        -0.304132
 C         2.699271         0.114689        -0.935870
 C         2.545956        -0.097616        -2.466332
 C         2.947421        -1.513292        -3.055226
 O         1.817828        -2.420363        -2.930124
 C         0.634515        -1.621683        -2.779575
 C         0.988194        -0.291287        -2.231284
 H         0.013419         1.188171         0.274320
 H        -0.830619        -0.445294         0.447869
 H         0.614638        -0.017279         1.441473
 H         3.345792         0.565545        -0.326575
 H         2.774205         0.641603        -3.102521
 H         3.120781        -1.339415        -4.089491
 H         3.695297        -2.182655        -2.741868
 H         0.139857        -1.447243        -3.712771
 H        -0.084720        -2.064798        -2.099611
 H         0.307737         0.436994        -2.696823
