19
Iteration:   622charge 0 multiplicity 1
 C         0.268338         0.189108         0.398680
 C         1.224738        -0.225153        -0.681494
 O         2.243333        -1.201778        -0.386800
 C         2.680204         0.083602        -0.946267
 C         2.548704        -0.133400        -2.460344
 C         2.881109        -1.475750        -3.028552
 O         1.855329        -2.442724        -2.859292
 C         0.607567        -1.602533        -2.806716
 C         0.965686        -0.357052        -2.184542
 H        -0.014554         1.198597         0.598271
 H        -0.816120        -0.446472         0.151624
 H         0.707968        -0.452882         1.266631
 H         3.372539         0.747876        -0.418724
 H         2.747210         0.611414        -3.297490
 H         3.196603        -1.331605        -4.141009
 H         3.789275        -1.834647        -2.476548
 H         0.073956        -1.386680        -3.715456
 H        -0.086357        -2.165028        -2.185520
 H         0.291938         0.495310        -2.553295
