19
Iteration:  4944
 C         0.179988         0.428642         0.206884
 C         1.237801        -0.349137        -0.581951
 O         1.799463        -1.514269        -0.134859
 C         2.706630        -0.465401        -0.562893
 C         2.811096        -0.361349        -2.198434
 C         3.039140        -1.567803        -2.980472
 O         1.691327        -2.127131        -3.400329
 C         0.660175        -1.153127        -3.142568
 C         1.222080        -0.191085        -2.074377
 H         0.636801         0.842988         1.111701
 H        -0.563283         1.172288        -0.346383
 H        -0.435847        -0.386508         0.560078
 H         3.552325        -0.237153         0.054427
 H         3.439496         0.594722        -2.351425
 H         3.533031        -1.317355        -3.880871
 H         3.585494        -2.383681        -2.534584
 H         0.485413        -0.391328        -3.991484
 H        -0.306111        -1.608749        -2.840053
 H         0.874463         0.746804        -2.437556
