19
Iteration:  4628
 C         0.244824         0.398676         0.257714
 C         1.205160        -0.303832        -0.629596
 O         1.809873        -1.606378        -0.215099
 C         2.689995        -0.320212        -0.576694
 C         2.729997        -0.363193        -2.146248
 C         3.048431        -1.598668        -3.016607
 O         1.755928        -2.180602        -3.364975
 C         0.653616        -1.173581        -3.048860
 C         1.197837        -0.113590        -2.136298
 H         0.077696        -0.119236         1.176713
 H         0.561885         1.536286         0.459011
 H        -0.766055         0.414830        -0.266131
 H         3.431230        -0.018770         0.123910
 H         3.078117         0.612989        -2.498508
 H         3.520973        -1.280411        -4.002486
 H         3.748707        -2.239677        -2.444741
 H         0.192261        -0.901601        -3.951039
 H        -0.098917        -1.751144        -2.470984
 H         0.902492         0.886797        -2.512961
