19
Iteration:  4698charge 0 multiplicity 1
 C         0.186797         0.321209         0.321465
 C         1.223453        -0.179031        -0.652224
 O         1.770868        -1.529723        -0.365815
 C         2.707846        -0.426467        -0.560836
 C         2.800219        -0.298834        -2.146126
 C         3.033143        -1.621827        -2.964898
 O         1.706762        -2.144348        -3.312089
 C         0.623726        -1.222661        -3.022879
 C         1.291068        -0.108224        -2.245352
 H         0.701469         0.368102         1.393966
 H        -0.239273         1.266903         0.248733
 H        -0.666738        -0.414375         0.563901
 H         3.416390        -0.304897         0.400035
 H         3.297943         0.617183        -2.475950
 H         3.675942        -1.218117        -3.824729
 H         3.429814        -2.450801        -2.309064
 H         0.184264        -0.943026        -3.927364
 H        -0.100396        -1.741611        -2.491779
 H         1.199920         0.900545        -2.718753
