19
Iteration:  3080charge 0 multiplicity 1
 C         0.368490         0.295787         0.415370
 C         1.191554        -0.184880        -0.705948
 O         2.219246        -1.292940        -0.298281
 C         2.643431        -0.075528        -0.844232
 C         2.539444        -0.125071        -2.377728
 C         2.999850        -1.488247        -2.846763
 O         1.799948        -2.254294        -3.314629
 C         0.618875        -1.777620        -2.737130
 C         0.878973        -0.308758        -2.283854
 H        -0.678275         0.406755         0.113930
 H         0.133242        -0.361586         1.269444
 H         0.741695         1.350748         0.746429
 H         3.113882         0.635730        -0.305605
 H         2.928097         0.775737        -2.926138
 H         3.642488        -1.488068        -3.739338
 H         3.500092        -2.129354        -2.047819
 H        -0.097169        -1.799422        -3.452865
 H         0.220484        -2.383215        -1.903770
 H         0.253486         0.590284        -2.622934
