19
Iteration:    55
 C         0.251558         0.330785         0.410226
 C         1.165401        -0.211028        -0.691056
 O         2.252368        -1.103507        -0.154009
 C         2.589471         0.125723        -0.887836
 C         2.577946        -0.190073        -2.403292
 C         3.015743        -1.612041        -2.943745
 O         1.768235        -2.203481        -3.524902
 C         0.635348        -1.889776        -2.602095
 C         0.969164        -0.490360        -2.151759
 H         0.794403         1.268077         0.605570
 H        -0.706801         0.732029         0.129956
 H         0.356415        -0.212444         1.306380
 H         3.317929         0.750576        -0.374281
 H         2.681944         0.636680        -3.095399
 H         3.669108        -1.525025        -3.795637
 H         3.443955        -2.304380        -2.287174
 H        -0.288018        -1.969154        -3.183031
 H         0.553166        -2.643155        -1.784439
 H         0.342365         0.297423        -2.662376
