19
Iteration:  1597charge 0 multiplicity 1
 C         0.259510         0.280882         0.344103
 C         1.218915        -0.191790        -0.665893
 O         2.212349        -1.199755        -0.201089
 C         2.706254        -0.055794        -0.856302
 C         2.510442        -0.202972        -2.421070
 C         2.948773        -1.482306        -3.070085
 O         1.796334        -2.282422        -3.257024
 C         0.639204        -1.740627        -2.669827
 C         1.001666        -0.365756        -2.159866
 H        -0.199067         1.151047         0.014257
 H        -0.610910        -0.495157         0.357105
 H         0.626971         0.561847         1.433412
 H         3.315280         0.763901        -0.345452
 H         2.722500         0.547232        -3.079176
 H         3.343827        -1.133757        -4.087104
 H         3.733091        -2.031701        -2.481330
 H        -0.234263        -1.841958        -3.421323
 H         0.363182        -2.312818        -1.725254
 H         0.338204         0.476925        -2.577031
