19
Iteration:   340
 C         0.218275         0.188276         0.402737
 C         1.199557        -0.111871        -0.712220
 O         2.229627        -1.122493        -0.211441
 C         2.683427         0.066487        -0.851792
 C         2.525144        -0.234036        -2.378348
 C         2.978962        -1.538868        -2.983898
 O         1.755412        -2.313609        -3.365250
 C         0.647529        -1.818733        -2.644323
 C         1.002891        -0.334584        -2.225311
 H        -0.036198         1.360309         0.428530
 H        -0.718478        -0.232970         0.410035
 H         0.866977         0.018439         1.353401
 H         3.490958         0.747455        -0.369743
 H         2.787075         0.604103        -3.070573
 H         3.611464        -1.355311        -3.947556
 H         3.503190        -2.101227        -2.240105
 H        -0.284090        -1.814847        -3.312539
 H         0.514313        -2.352361        -1.711987
 H         0.384222         0.378106        -2.829675
