19
Iteration:  3707
 C         0.350258         0.397734         0.391115
 C         1.208819        -0.240873        -0.588264
 O         1.893768        -1.296005        -0.144709
 C         2.689977        -0.190672        -0.667000
 C         2.689100        -0.301601        -2.228819
 C         2.952015        -1.666024        -2.972868
 O         1.748628        -1.975498        -3.724174
 C         0.645713        -1.593628        -2.871398
 C         1.133504        -0.386612        -2.131609
 H         0.929177         0.370223         1.409793
 H        -0.039170         1.426454         0.278234
 H        -0.469475        -0.290904         0.513778
 H         3.459208         0.352091        -0.012959
 H         3.161257         0.581192        -2.645657
 H         3.756821        -1.688192        -3.661473
 H         3.058486        -2.480590        -2.326577
 H        -0.168300        -1.347793        -3.491607
 H         0.446883        -2.432508        -1.998631
 H         0.494960         0.512477        -2.581580
