19
Iteration:  4397
 C         0.156455         0.392364         0.384003
 C         1.217720        -0.164797        -0.630018
 O         1.835027        -1.464868        -0.247360
 C         2.724375        -0.424080        -0.599102
 C         2.748829        -0.430244        -2.174910
 C         3.027974        -1.709652        -2.870714
 O         1.780398        -1.954625        -3.640394
 C         0.654832        -1.329508        -2.938307
 C         1.225723        -0.166244        -2.172537
 H         0.236290         0.132747         1.431141
 H        -0.010845         1.523795         0.284765
 H        -0.709378        -0.076593         0.016240
 H         3.446223         0.058804         0.095292
 H         3.285133         0.515293        -2.494822
 H         3.763122        -1.843714        -3.679278
 H         3.086418        -2.581443        -2.152776
 H        -0.227676        -0.976866        -3.611626
 H         0.090229        -2.039085        -2.308370
 H         1.067443         0.856995        -2.599127
