19
Iteration:  1626
 C         0.262592         0.246112         0.472278
 C         1.219506        -0.105160        -0.598741
 O         2.200127        -1.095643        -0.171182
 C         2.707840         0.108992        -0.821647
 C         2.537287        -0.197838        -2.458516
 C         2.977072        -1.674849        -2.946440
 O         1.759353        -2.235639        -3.532972
 C         0.647180        -1.825307        -2.741390
 C         1.003399        -0.411475        -2.129271
 H        -0.547035         0.945292         0.022853
 H        -0.264783        -0.606526         0.772922
 H         0.625078         0.700664         1.304530
 H         3.413470         0.660099        -0.329456
 H         2.778817         0.494520        -3.395923
 H         3.587183        -1.520149        -3.758754
 H         3.295051        -2.304592        -2.120897
 H        -0.132843        -1.684011        -3.396648
 H         0.309801        -2.491595        -1.933581
 H         0.279640         0.302101        -2.450932
