19
Iteration:    27
 C         0.284911         0.309409         0.565203
 C         1.219051        -0.011209        -0.630857
 O         2.062417        -1.047580        -0.220916
 C         2.671516         0.011162        -0.990734
 C         2.460082        -0.252991        -2.483193
 C         2.926280        -1.645117        -2.908149
 O         1.838574        -2.176224        -3.575704
 C         0.820109        -1.926183        -2.564779
 C         0.943079        -0.432292        -2.195476
 H         0.698560         1.040465         1.357023
 H        -0.507198         0.857976         0.055914
 H         0.048073        -0.656001         1.176515
 H         3.427338         0.751576        -0.438643
 H         2.643680         0.558777        -3.214383
 H         3.856815        -1.695971        -3.517238
 H         3.291210        -2.325996        -2.025524
 H        -0.174560        -2.346135        -2.893655
 H         0.991108        -2.560616        -1.693164
 H         0.353440         0.210678        -2.812548
