19
Iteration:  4917charge 0 multiplicity 1
 C         0.273281         0.473146         0.343004
 C         1.163303        -0.332221        -0.595026
 O         1.846416        -1.577202        -0.228628
 C         2.631324        -0.447018        -0.520915
 C         2.753461        -0.355801        -2.165737
 C         2.962978        -1.615374        -2.942334
 O         1.769802        -2.098426        -3.398947
 C         0.667824        -1.236048        -3.179494
 C         1.223197        -0.088629        -2.197179
 H         0.770050         0.717990         1.316466
 H        -0.200495         1.270652        -0.148986
 H        -0.551813        -0.251910         0.587601
 H         3.344539         0.031234         0.258501
 H         3.445619         0.411711        -2.388168
 H         3.581966        -1.246528        -3.865460
 H         3.492587        -2.476861        -2.403012
 H         0.366240        -0.678558        -4.137994
 H        -0.165873        -1.797484        -2.741376
 H         0.891264         0.912136        -2.574404
