19
Iteration:  2391charge 0 multiplicity 1
 C         0.200324         0.304111         0.372410
 C         1.237297        -0.152301        -0.675367
 O         2.188880        -1.214917        -0.141740
 C         2.717848        -0.048847        -0.829407
 C         2.530565        -0.157443        -2.433198
 C         2.911806        -1.391508        -3.325241
 O         1.875681        -2.393521        -3.063681
 C         0.638233        -1.762444        -2.711349
 C         1.008321        -0.374525        -2.146041
 H        -0.310542         1.248133         0.034298
 H        -0.574066        -0.350571         0.374534
 H         0.528492         0.273929         1.456769
 H         3.435048         0.517548        -0.313707
 H         2.689234         0.768921        -3.033899
 H         2.900818        -1.143362        -4.388175
 H         3.840088        -1.928769        -3.088832
 H         0.020778        -1.662251        -3.549181
 H         0.137990        -2.446637        -1.922465
 H         0.325041         0.322657        -2.522190
