19
Iteration:  3938
 C         0.178240         0.329883         0.295173
 C         1.255075        -0.195699        -0.567162
 O         1.996247        -1.479970        -0.240584
 C         2.749445        -0.272439        -0.649363
 C         2.794377        -0.336869        -2.214234
 C         2.904511        -1.660955        -2.855402
 O         1.741550        -2.009148        -3.621503
 C         0.568482        -1.420371        -2.871703
 C         1.137591        -0.131695        -2.145145
 H        -0.521499        -0.640039         0.469724
 H         0.500099         0.674510         1.298670
 H        -0.262587         1.205537        -0.157829
 H         3.444728         0.111613         0.136412
 H         3.344030         0.490172        -2.727579
 H         3.709501        -1.653866        -3.631666
 H         3.141750        -2.579980        -2.135985
 H        -0.086916        -1.130639        -3.679954
 H         0.189491        -2.219125        -2.213626
 H         0.630021         0.700824        -2.709708
