19
Iteration:  1694
 C         0.246876         0.368734         0.400734
 C         1.237808        -0.219108        -0.563061
 O         2.261001        -1.067417        -0.047467
 C         2.699985         0.064481        -0.871672
 C         2.479441        -0.267316        -2.409883
 C         2.962230        -1.589456        -2.964488
 O         1.758604        -2.199464        -3.662220
 C         0.646052        -1.829185        -2.759549
 C         0.980549        -0.528687        -2.047336
 H        -0.297151         1.133099        -0.122411
 H        -0.547740        -0.350213         0.764104
 H         0.738026         0.950994         1.275425
 H         3.533253         0.533454        -0.214631
 H         2.731913         0.649341        -2.968797
 H         3.621666        -1.273212        -3.754685
 H         3.294206        -2.247556        -2.182396
 H        -0.259836        -1.686391        -3.417720
 H         0.513955        -2.754918        -2.193805
 H         0.276351         0.199244        -2.484067
