19
Iteration:  2928charge 0 multiplicity 1
 C         0.328842         0.540982         0.462725
 C         1.093550        -0.246957        -0.634557
 O         2.146374        -1.189177        -0.227979
 C         2.559190        -0.066876        -0.819844
 C         2.545926        -0.229137        -2.312714
 C         2.964645        -1.451853        -3.130188
 O         1.870722        -2.272436        -3.488824
 C         0.756156        -1.889716        -2.602605
 C         0.922654        -0.432173        -2.196257
 H         0.581491         1.607779         0.526462
 H        -0.644306         0.151698         0.482314
 H         0.589858         0.139176         1.481591
 H         3.174291         0.597327        -0.405682
 H         2.779503         0.772486        -2.753047
 H         3.523215        -1.144634        -4.041361
 H         3.637114        -2.137123        -2.550963
 H        -0.127744        -2.125087        -3.150578
 H         0.766169        -2.595581        -1.697269
 H         0.341741         0.300033        -2.860805
