19
Iteration:  1578charge 0 multiplicity 1
 C         0.263413         0.341096         0.269299
 C         1.250654        -0.248348        -0.635937
 O         2.133406        -1.312087        -0.289339
 C         2.693437         0.008565        -0.858891
 C         2.547547        -0.066381        -2.406646
 C         2.951326        -1.402622        -3.195904
 O         1.863961        -2.391775        -3.132068
 C         0.637271        -1.774994        -2.578998
 C         0.937069        -0.372360        -2.159686
 H         0.059005         1.391713         0.026679
 H        -0.738277        -0.198954         0.312772
 H         0.696234         0.300842         1.369321
 H         3.599755         0.389905        -0.175448
 H         2.736395         0.975159        -2.763701
 H         3.170401        -1.230804        -4.324854
 H         3.624678        -1.952583        -2.512311
 H        -0.113469        -1.666561        -3.444057
 H         0.194017        -2.295947        -1.778975
 H         0.397931         0.592275        -2.395799
