19
Iteration:  2895charge 0 multiplicity 1
 C         0.350000         0.381553         0.412231
 C         1.195887        -0.146772        -0.625743
 O         2.005020        -1.264539        -0.277919
 C         2.723218        -0.052158        -0.923737
 C         2.501211        -0.111957        -2.458219
 C         2.994454        -1.427392        -3.080069
 O         1.886082        -2.268423        -3.259645
 C         0.665871        -1.863173        -2.616581
 C         0.927536        -0.447376        -2.136327
 H        -0.173638         1.335516         0.219795
 H        -0.428103        -0.383645         0.389438
 H         0.886226         0.367700         1.398159
 H         3.478992         0.390469        -0.369229
 H         2.777136         0.840497        -2.982003
 H         3.619865        -1.298027        -3.992735
 H         3.638859        -1.885260        -2.264993
 H        -0.113863        -1.699616        -3.321851
 H         0.365836        -2.612420        -1.870660
 H         0.339128         0.351069        -2.696694
