19
Iteration:  3167charge 0 multiplicity 1
 C         0.176099         0.312301         0.346061
 C         1.273797        -0.251155        -0.672402
 O         2.154041        -1.341489        -0.250663
 C         2.701273        -0.088283        -0.851627
 C         2.584035        -0.178869        -2.363434
 C         2.934379        -1.463795        -3.176641
 O         1.845288        -2.268215        -3.009651
 C         0.584326        -1.624289        -2.832044
 C         1.025113        -0.325744        -2.095445
 H        -0.322173        -0.493146         0.792063
 H         0.736975         0.915358         1.066234
 H        -0.596105         0.834399        -0.318452
 H         3.505086         0.384063        -0.303978
 H         2.800266         0.774794        -2.923074
 H         3.084312        -1.115739        -4.196951
 H         3.848453        -2.104219        -2.838904
 H         0.135445        -1.490569        -3.908112
 H        -0.078270        -2.287809        -2.290860
 H         0.501728         0.641995        -2.382823
