19
Iteration:  2439charge 0 multiplicity 1
 C         0.265977         0.208474         0.439649
 C         1.263065        -0.239033        -0.614383
 O         2.299330        -1.160367        -0.219822
 C         2.658174         0.055871        -0.939385
 C         2.419016        -0.177282        -2.466021
 C         2.956016        -1.510922        -3.049061
 O         1.848772        -2.375645        -3.073380
 C         0.563943        -1.617098        -2.927779
 C         0.957628        -0.370877        -2.149100
 H        -0.578298         0.686605        -0.135228
 H        -0.264225        -0.627997         1.053367
 H         0.720622         0.753762         1.240077
 H         3.468790         0.698676        -0.366218
 H         2.754554         0.688120        -3.057875
 H         3.580770        -1.563026        -3.912392
 H         3.483272        -1.980848        -2.205198
 H         0.181710        -1.583809        -3.898721
 H        -0.085471        -2.388631        -2.359193
 H         0.318525         0.576306        -2.419930
