19
Iteration:   577charge 0 multiplicity 1
 C         0.393393         0.136321         0.434125
 C         1.208898        -0.295071        -0.692116
 O         2.343664        -1.131850        -0.306840
 C         2.601997         0.081416        -0.969878
 C         2.446666        -0.098887        -2.475172
 C         2.918014        -1.550928        -2.938225
 O         1.738205        -2.360259        -2.801337
 C         0.612333        -1.627467        -3.021278
 C         1.004960        -0.370923        -2.204259
 H        -0.006908         1.102375         0.195816
 H        -0.607239        -0.622419         0.548990
 H         0.867793        -0.126810         1.426430
 H         2.981446         0.907360        -0.293575
 H         2.721420         0.778168        -3.203631
 H         3.249139        -1.595849        -4.024903
 H         3.764162        -2.035549        -2.406737
 H         0.494728        -1.435099        -4.103403
 H        -0.369877        -2.053015        -2.736655
 H         0.316208         0.532913        -2.485443
