19
Iteration:  3726
 C         0.283404         0.487275         0.389881
 C         1.207678        -0.170629        -0.606410
 O         1.935675        -1.417256        -0.078673
 C         2.700897        -0.306733        -0.663777
 C         2.644100        -0.365750        -2.219625
 C         2.986454        -1.637707        -3.053939
 O         1.743596        -1.936361        -3.753931
 C         0.679041        -1.681363        -2.787680
 C         1.110908        -0.239272        -2.149420
 H         0.780324         1.083195         1.131385
 H        -0.333225         1.289888        -0.051040
 H        -0.520067        -0.258008         0.808326
 H         3.506099         0.039954         0.124386
 H         3.073320         0.607459        -2.594402
 H         3.710725        -1.328371        -3.842872
 H         3.418964        -2.474892        -2.396720
 H        -0.268131        -1.662295        -3.357909
 H         0.591626        -2.369718        -1.978806
 H         0.762946         0.574389        -2.671231
