19
Iteration:  1627
 C         0.264670         0.250486         0.471331
 C         1.224479        -0.104619        -0.604192
 O         2.198098        -1.093156        -0.170174
 C         2.704758         0.107783        -0.820493
 C         2.538099        -0.198417        -2.465602
 C         2.966423        -1.677690        -2.937366
 O         1.761191        -2.228863        -3.538720
 C         0.656075        -1.824318        -2.744136
 C         1.001756        -0.421417        -2.129808
 H        -0.512426         0.899320         0.024039
 H        -0.261443        -0.627289         0.792045
 H         0.629558         0.712710         1.342402
 H         3.389161         0.705067        -0.297490
 H         2.749061         0.478957        -3.381042
 H         3.597624        -1.545179        -3.740384
 H         3.274068        -2.322422        -2.130676
 H        -0.145537        -1.691831        -3.405119
 H         0.315347        -2.492022        -1.912290
 H         0.295491         0.334734        -2.424192
