19
Iteration:  4283charge 0 multiplicity 1
 C         0.405962         0.461974         0.405721
 C         1.202445        -0.217426        -0.702636
 O         1.677213        -1.442791        -0.153083
 C         2.622312        -0.487585        -0.605085
 C         2.643238        -0.382488        -2.147882
 C         3.027874        -1.591751        -2.894968
 O         1.850122        -1.943890        -3.685631
 C         0.690675        -1.452107        -2.972144
 C         1.133658        -0.216352        -2.185236
 H         1.020808         0.344820         1.327773
 H         0.428714         1.489228         0.141587
 H        -0.640263         0.057084         0.396107
 H         3.426601        -0.133923         0.181889
 H         3.192021         0.513410        -2.481990
 H         3.833177        -1.212778        -3.554298
 H         3.479826        -2.316409        -2.187669
 H        -0.237870        -1.372978        -3.513074
 H         0.484466        -2.341019        -2.190534
 H         0.792192         0.660066        -2.717516
