19
Iteration:  1611
 C         0.178334         0.273790         0.417066
 C         1.249923        -0.153028        -0.614079
 O         2.238787        -1.116560        -0.199415
 C         2.698189         0.025293        -0.925511
 C         2.525395        -0.252451        -2.353867
 C         2.978835        -1.538991        -3.025412
 O         1.781619        -2.297117        -3.406883
 C         0.599640        -1.766217        -2.686524
 C         0.972434        -0.375808        -2.160551
 H        -0.475818         1.132424         0.062033
 H        -0.434801        -0.627225         0.727329
 H         0.780398         0.523530         1.373689
 H         3.588182         0.577121        -0.411840
 H         2.819979         0.734628        -2.759499
 H         3.688750        -1.520693        -3.959037
 H         3.613498        -2.165149        -2.324419
 H        -0.263709        -1.747341        -3.446459
 H         0.359153        -2.505190        -1.932245
 H         0.514388         0.542292        -2.677405
