19
Iteration:  4278charge 0 multiplicity 1
 C         0.384117         0.459369         0.388430
 C         1.181247        -0.182869        -0.682639
 O         1.681378        -1.494294        -0.190843
 C         2.634653        -0.455362        -0.619887
 C         2.666274        -0.366692        -2.158978
 C         3.004553        -1.600488        -2.896402
 O         1.848833        -1.948581        -3.659917
 C         0.700804        -1.482599        -2.914336
 C         1.176388        -0.177501        -2.174203
 H         0.869584         0.270005         1.337666
 H         0.467534         1.605279         0.192732
 H        -0.641687         0.048568         0.420798
 H         3.364156        -0.199498         0.058403
 H         3.219904         0.471480        -2.575515
 H         3.778033        -1.244405        -3.578466
 H         3.470545        -2.329665        -2.220068
 H        -0.150694        -1.443376        -3.660188
 H         0.393999        -2.316198        -2.333049
 H         0.702014         0.768844        -2.575704
