19
Iteration:  1468
 C         0.316948         0.434521         0.302205
 C         1.265707        -0.202575        -0.620799
 O         2.080947        -1.313513        -0.235840
 C         2.654022        -0.112204        -0.900936
 C         2.437691        -0.125649        -2.383747
 C         3.045388        -1.406732        -3.126210
 O         1.868190        -2.332533        -3.184434
 C         0.653195        -1.765449        -2.717351
 C         0.928692        -0.392245        -2.108342
 H        -0.207959         1.181799        -0.175452
 H        -0.397094        -0.350913         0.705788
 H         0.819242         0.785563         1.290340
 H         3.418205         0.399308        -0.299708
 H         2.826964         0.838013        -2.869135
 H         3.284018        -1.190547        -4.184337
 H         3.893090        -1.877449        -2.562091
 H        -0.104327        -1.864562        -3.495702
 H         0.344551        -2.354193        -1.912935
 H         0.266179         0.479111        -2.339145
