19
Iteration:  3528
 C         0.382396         0.489563         0.426067
 C         1.203967        -0.169577        -0.625247
 O         1.953531        -1.385717        -0.124838
 C         2.626245        -0.270736        -0.749070
 C         2.514925        -0.280941        -2.249515
 C         3.062046        -1.475078        -2.995045
 O         1.843800        -2.161096        -3.594318
 C         0.654402        -1.741566        -2.812215
 C         0.956555        -0.272966        -2.249343
 H        -0.595238         0.379409         0.332066
 H         0.777597         0.123898         1.322887
 H         0.657277         1.569268         0.653243
 H         3.345944         0.193619        -0.177388
 H         2.999519         0.681667        -2.558364
 H         3.691196        -1.241810        -3.851589
 H         3.551919        -2.097752        -2.336168
 H        -0.119753        -1.639732        -3.527513
 H         0.385857        -2.361795        -1.905048
 H         0.679801         0.663138        -2.634762
