19
Iteration:  3090
 C         0.293633         0.301590         0.416532
 C         1.202309        -0.206400        -0.665749
 O         2.187419        -1.284964        -0.284603
 C         2.664407        -0.025333        -0.862675
 C         2.482501        -0.153560        -2.419518
 C         2.927347        -1.486482        -2.910905
 O         1.835547        -2.308384        -3.285236
 C         0.635028        -1.694355        -2.773215
 C         0.961026        -0.323418        -2.208803
 H        -0.681853         0.341577         0.022069
 H         0.535511        -0.396046         1.273319
 H         0.591215         1.370213         0.903269
 H         3.376325         0.452721        -0.315261
 H         3.021801         0.679232        -2.919513
 H         3.633984        -1.362635        -3.737800
 H         3.453650        -2.105453        -2.016938
 H        -0.040046        -1.712918        -3.539198
 H         0.358231        -2.326283        -1.963391
 H         0.335498         0.479269        -2.734022
