19
Iteration:  1333
 C         0.334443         0.443784         0.421200
 C         1.217772        -0.217080        -0.590783
 O         2.155349        -1.164430        -0.082147
 C         2.655770         0.037258        -0.826836
 C         2.435764        -0.213230        -2.365910
 C         2.989203        -1.497401        -3.086327
 O         1.824572        -2.332071        -3.437859
 C         0.675187        -1.840992        -2.832245
 C         0.954953        -0.430461        -2.150803
 H        -0.318000         1.329532         0.018218
 H        -0.304837        -0.464610         0.909883
 H         0.946326         0.731565         1.223272
 H         3.561465         0.488390        -0.191645
 H         2.565138         0.672901        -2.954374
 H         3.431635        -1.380705        -4.107511
 H         3.692428        -2.044331        -2.350017
 H        -0.127093        -1.608244        -3.544325
 H         0.341124        -2.637915        -2.183945
 H         0.325425         0.346829        -2.550193
