19
Iteration:  2861charge 0 multiplicity 1
 C         0.175451         0.289063         0.397756
 C         1.258786        -0.269515        -0.664319
 O         2.268310        -1.278483        -0.294628
 C         2.621326         0.039541        -0.853750
 C         2.541998        -0.128598        -2.416911
 C         2.952134        -1.484492        -3.104277
 O         1.804645        -2.366385        -3.171712
 C         0.619231        -1.677798        -2.665587
 C         1.012007        -0.304215        -2.191369
 H        -0.567651         0.807411        -0.159329
 H        -0.356681        -0.524053         0.936224
 H         0.592149         0.957417         1.288455
 H         3.334326         0.656888        -0.214526
 H         2.951398         0.721497        -3.038445
 H         3.361000        -1.461846        -4.147725
 H         3.686238        -2.032955        -2.438535
 H        -0.130107        -1.692368        -3.409664
 H         0.293397        -2.365132        -1.824875
 H         0.451803         0.551619        -2.778659
