19
Iteration:  2531
 C         0.141608         0.171479         0.323817
 C         1.311787        -0.233701        -0.615796
 O         2.275428        -1.214450        -0.308185
 C         2.740906         0.092684        -0.882074
 C         2.492671        -0.118431        -2.422573
 C         2.856860        -1.450391        -3.187678
 O         1.839350        -2.448527        -2.854952
 C         0.658403        -1.701953        -2.807758
 C         0.987759        -0.266051        -2.166451
 H        -0.161073         1.100765        -0.048050
 H        -0.744504        -0.586442         0.175381
 H         0.332975        -0.003359         1.388614
 H         3.526616         0.548367        -0.398521
 H         2.859883         0.708965        -3.018830
 H         2.837515        -1.146343        -4.248380
 H         3.801171        -1.909582        -2.961296
 H         0.235053        -1.533899        -3.786535
 H        -0.031923        -2.140516        -2.214847
 H         0.188302         0.514678        -2.388601
