19
Iteration:  3140
 C         0.225173         0.218372         0.365681
 C         1.233379        -0.224571        -0.699280
 O         2.212488        -1.226124        -0.130595
 C         2.699932        -0.080038        -0.774467
 C         2.521294        -0.164266        -2.357244
 C         2.938146        -1.459803        -3.105669
 O         1.757698        -2.382060        -3.189857
 C         0.629089        -1.646129        -2.805258
 C         1.067749        -0.267512        -2.220729
 H        -0.723897        -0.403944         0.265896
 H         0.800877         0.393112         1.262788
 H        -0.156767         1.132537        -0.036284
 H         3.477512         0.557365        -0.215973
 H         2.749104         0.737729        -2.892839
 H         3.133263        -1.133674        -4.163573
 H         3.708248        -2.037880        -2.722453
 H        -0.035748        -1.588817        -3.776501
 H         0.056259        -2.200091        -2.001119
 H         0.643579         0.627679        -2.648920
