19
Iteration:  3779charge 0 multiplicity 1
 C         0.364182         0.579936         0.289285
 C         1.222592        -0.269354        -0.651289
 O         1.834067        -1.470643        -0.118915
 C         2.695247        -0.392073        -0.592501
 C         2.722952        -0.340984        -2.163490
 C         2.972920        -1.456129        -3.124742
 O         1.723116        -1.955392        -3.666601
 C         0.736584        -1.663162        -2.761284
 C         1.038716        -0.317082        -2.146222
 H         0.727673         1.537931         0.448050
 H        -0.645125         0.682407        -0.147416
 H         0.231494         0.120628         1.369921
 H         3.402234         0.038580         0.242031
 H         3.151743         0.683933        -2.371136
 H         3.644594        -1.255339        -4.024891
 H         3.461296        -2.286774        -2.501519
 H        -0.273465        -1.647929        -3.317091
 H         0.768935        -2.331577        -1.940966
 H         0.514408         0.449928        -2.627020
