19
Iteration:  4546
 C         0.338426         0.424085         0.301709
 C         1.227459        -0.239478        -0.611006
 O         1.650123        -1.598547        -0.354991
 C         2.638183        -0.613137        -0.637856
 C         2.773730        -0.336702        -2.151362
 C         3.062419        -1.435961        -3.109146
 O         1.787815        -2.134151        -3.030517
 C         0.627547        -1.276027        -3.112959
 C         1.227651        -0.047380        -2.189782
 H         0.801687         0.736525         1.339211
 H        -0.112654         1.303028        -0.141733
 H        -0.543801        -0.239190         0.452073
 H         3.373543        -0.541083         0.093708
 H         3.241599         0.640423        -2.319693
 H         3.285965        -1.042098        -4.157035
 H         3.909359        -2.039080        -2.748721
 H         0.411370        -0.990240        -4.186830
 H        -0.177339        -1.830805        -2.608576
 H         0.992151         0.879167        -2.650234
