19
Iteration:  1896
 C         0.335221         0.016124         0.363524
 C         1.215278        -0.209419        -0.716742
 O         2.163314        -1.204978        -0.407966
 C         2.703229         0.029197        -0.903828
 C         2.518455        -0.089657        -2.480282
 C         2.946874        -1.496794        -2.968182
 O         1.768644        -2.368805        -2.807883
 C         0.619937        -1.579961        -2.756358
 C         1.001207        -0.235425        -2.304953
 H        -0.562464         0.713090        -0.001709
 H        -0.208643        -0.949385         0.742066
 H         0.774128         0.465034         1.252581
 H         3.525092         0.366787        -0.461084
 H         2.855735         0.716005        -3.057494
 H         3.176294        -1.545459        -4.053605
 H         3.855674        -1.779346        -2.474459
 H         0.221365        -1.536763        -3.790206
 H        -0.073503        -2.209574        -2.081431
 H         0.392448         0.606285        -2.640017
