19
Iteration:  4176
 C         0.166085         0.270907         0.352102
 C         1.208370        -0.241813        -0.554224
 O         1.960456        -1.456492        -0.247391
 C         2.746015        -0.273705        -0.581698
 C         2.755371        -0.362849        -2.238866
 C         3.003220        -1.789394        -2.849977
 O         1.692708        -2.051846        -3.572970
 C         0.558675        -1.197994        -3.062648
 C         1.223224        -0.138545        -2.106832
 H         0.433767         0.394052         1.487738
 H        -0.232660         1.188992        -0.017867
 H        -0.664928        -0.425185         0.369428
 H         3.319774         0.230533         0.297939
 H         3.425405         0.393558        -2.785472
 H         3.811366        -1.676974        -3.583812
 H         3.234632        -2.600983        -2.117667
 H         0.329242        -0.687425        -4.052838
 H        -0.167024        -1.872698        -2.712521
 H         1.069729         0.859411        -2.489976
