19
Iteration:  4302
 C         0.356445         0.621892         0.460370
 C         1.151011        -0.231346        -0.573325
 O         1.711788        -1.502053        -0.098639
 C         2.598730        -0.422634        -0.570996
 C         2.727305        -0.391043        -2.087942
 C         3.048716        -1.646096        -3.038789
 O         1.857501        -1.880389        -3.792875
 C         0.692618        -1.563593        -2.985215
 C         1.141950        -0.248096        -2.197332
 H         0.951781         0.712321         1.343825
 H         0.158911         1.681045         0.082020
 H        -0.578166        -0.023723         0.714588
 H         3.417013        -0.063601         0.189582
 H         3.182595         0.523008        -2.412095
 H         3.922276        -1.564694        -3.719427
 H         3.233196        -2.462185        -2.356062
 H         0.004165        -1.480896        -3.792873
 H         0.237734        -2.468494        -2.497142
 H         0.696088         0.709997        -2.610891
