19
Iteration:  2653
 C         0.307474         0.553871         0.368745
 C         1.229989        -0.215121        -0.539637
 O         2.067287        -1.350714        -0.219430
 C         2.654529        -0.135079        -0.879356
 C         2.493209        -0.179085        -2.359438
 C         3.010413        -1.275829        -3.245354
 O         1.979902        -2.345547        -3.148783
 C         0.652646        -1.911221        -2.748128
 C         0.888714        -0.417155        -2.124032
 H        -0.273034         1.181823        -0.386643
 H        -0.568795        -0.094814         0.715886
 H         0.856214         1.192986         1.207755
 H         3.415871         0.380844        -0.333332
 H         2.748924         0.827934        -2.876765
 H         2.851033        -0.853798        -4.216802
 H         4.052509        -1.664002        -3.089681
 H        -0.044316        -1.799714        -3.581075
 H         0.228927        -2.566982        -2.064444
 H         0.089730         0.349584        -2.377066
