19
Iteration:   606
 C         0.285283         0.099768         0.436287
 C         1.251602        -0.208745        -0.650475
 O         2.316747        -1.190918        -0.411832
 C         2.676020         0.090591        -0.963084
 C         2.425430        -0.098526        -2.474419
 C         2.957899        -1.531577        -2.969840
 O         1.789818        -2.383600        -2.793594
 C         0.608240        -1.682024        -2.930038
 C         0.918995        -0.284851        -2.185685
 H         0.263284         1.302412         0.349157
 H        -0.649316        -0.219635         0.246961
 H         0.503050        -0.230070         1.409043
 H         3.419529         0.631470        -0.365631
 H         2.704723         0.806692        -3.070065
 H         3.295747        -1.582671        -4.044398
 H         3.745378        -2.002796        -2.392529
 H         0.492473        -1.523914        -4.053496
 H        -0.314056        -2.265615        -2.621260
 H         0.306303         0.531450        -2.540917
