19
Iteration:  1970charge 0 multiplicity 1
 C         0.245963         0.335651         0.325704
 C         1.216045        -0.268147        -0.645386
 O         2.318057        -1.178748        -0.127840
 C         2.721343        -0.034802        -0.864131
 C         2.426408        -0.158779        -2.381351
 C         2.915010        -1.391836        -3.156480
 O         1.856712        -2.403442        -3.040797
 C         0.616918        -1.710788        -2.874279
 C         0.932941        -0.457194        -2.173444
 H         0.291038         1.336999         0.266497
 H        -0.848819         0.173950         0.129901
 H         0.535665         0.103682         1.388098
 H         3.385111         0.531695        -0.366381
 H         2.500616         0.696186        -2.919407
 H         3.129890        -1.130923        -4.231541
 H         3.787948        -1.890949        -2.754827
 H         0.263150        -1.456700        -3.899704
 H        -0.082922        -2.338159        -2.387116
 H         0.304801         0.383776        -2.509970
