19
Iteration:  3384charge 0 multiplicity 1
 C         0.307022         0.404117         0.444499
 C         1.185954        -0.233362        -0.685921
 O         2.132465        -1.410789        -0.356771
 C         2.644201        -0.106695        -0.803702
 C         2.580034        -0.147851        -2.300534
 C         3.014487        -1.557692        -2.849916
 O         1.834121        -2.241008        -3.411696
 C         0.581722        -1.608278        -2.796044
 C         0.961622        -0.251844        -2.194466
 H         0.724465         1.329685         0.748692
 H        -0.807795         0.591721         0.249998
 H         0.313759        -0.384965         1.355327
 H         3.453402         0.188671        -0.045029
 H         2.937136         0.731958        -2.871820
 H         3.770809        -1.450125        -3.661620
 H         3.478763        -2.207803        -2.086775
 H        -0.283573        -1.590642        -3.581325
 H         0.206776        -2.395860        -2.115857
 H         0.389148         0.505808        -2.705150
