19
Iteration:   520charge 0 multiplicity 1
 C         0.230377         0.201588         0.318020
 C         1.276135        -0.192904        -0.642450
 O         2.184047        -1.150881        -0.239515
 C         2.760821         0.016978        -0.927120
 C         2.491895        -0.165535        -2.458076
 C         2.998170        -1.512157        -3.098275
 O         1.846018        -2.350154        -3.114995
 C         0.525391        -1.704934        -2.659519
 C         0.969466        -0.323828        -2.132185
 H        -0.744296         0.579738        -0.104527
 H        -0.027566        -0.814523         0.739461
 H         0.569235         0.939304         0.997982
 H         3.525318         0.353820        -0.288277
 H         2.871233         0.615812        -3.114558
 H         3.233881        -1.285538        -4.163698
 H         3.844071        -1.915286        -2.558724
 H        -0.053351        -1.603861        -3.543901
 H        -0.022913        -2.256267        -1.867974
 H         0.251181         0.447353        -2.452685
