19
Iteration:  3553charge 0 multiplicity 1
 C         0.313850         0.470311         0.440089
 C         1.209881        -0.189604        -0.592904
 O         1.866248        -1.449005        -0.344997
 C         2.629935        -0.190404        -0.798532
 C         2.674297        -0.203892        -2.297807
 C         3.016931        -1.496011        -3.000966
 O         1.822109        -2.153916        -3.444576
 C         0.667012        -1.682595        -2.775301
 C         1.066286        -0.336167        -2.141166
 H        -0.639727        -0.071237         0.750926
 H         0.948875         0.683581         1.279853
 H         0.106208         1.495220         0.207868
 H         3.552991        -0.015258        -0.099530
 H         3.258137         0.646355        -2.689633
 H         3.603542        -1.314736        -3.901376
 H         3.561466        -2.180198        -2.348147
 H        -0.108795        -1.429233        -3.432845
 H         0.326931        -2.348991        -2.011756
 H         0.377326         0.587555        -2.366232
