19
Iteration:  2865
 C         0.216478         0.316192         0.398493
 C         1.219940        -0.246805        -0.622597
 O         2.259204        -1.292289        -0.308821
 C         2.666233         0.023741        -0.844231
 C         2.493752        -0.122457        -2.410807
 C         2.951814        -1.504998        -3.095396
 O         1.842440        -2.351757        -3.183241
 C         0.620746        -1.718281        -2.631670
 C         0.979610        -0.273472        -2.218794
 H        -0.673515         0.741914        -0.189513
 H        -0.427375        -0.483643         0.738718
 H         0.659258         0.818835         1.168348
 H         3.361138         0.565157        -0.338046
 H         2.874732         0.687317        -3.014055
 H         3.420785        -1.341352        -4.122051
 H         3.698850        -2.031877        -2.413280
 H        -0.218960        -1.653347        -3.484989
 H         0.292335        -2.326845        -1.862647
 H         0.558830         0.510903        -2.736566
