19
Iteration:  2664
 C         0.191555         0.513048         0.337455
 C         1.266327        -0.223843        -0.532132
 O         2.094056        -1.354617        -0.209928
 C         2.711912        -0.097517        -0.873232
 C         2.447491        -0.171863        -2.386876
 C         2.893588        -1.263916        -3.291635
 O         1.963043        -2.406836        -3.139182
 C         0.693786        -1.812545        -2.719571
 C         0.974032        -0.433723        -2.098769
 H        -0.171338         1.376151        -0.245157
 H        -0.628114        -0.132227         0.766387
 H         0.605197         1.156077         1.271570
 H         3.555058         0.295017        -0.299660
 H         2.887805         0.819599        -2.764685
 H         3.026239        -1.003722        -4.331230
 H         3.894674        -1.659140        -2.954474
 H         0.057111        -1.758776        -3.613492
 H         0.318307        -2.520932        -2.056281
 H         0.349312         0.353012        -2.630800
