19
Iteration:   430charge 0 multiplicity 1
 C         0.341380         0.619258         0.422983
 C         1.126215        -0.192616        -0.567508
 O         2.125950        -1.135851        -0.138600
 C         2.554085         0.014053        -0.804388
 C         2.476707        -0.294402        -2.329205
 C         2.974348        -1.488404        -3.136082
 O         1.803906        -2.176920        -3.663258
 C         0.836882        -2.045968        -2.608930
 C         0.953761        -0.586066        -2.087637
 H         0.215919         1.750216         0.197256
 H        -0.571531         0.250013         0.553805
 H         0.959790         0.522396         1.308416
 H         3.281985         0.778109        -0.371517
 H         2.688685         0.641062        -2.812196
 H         3.645060        -1.207866        -3.981667
 H         3.391960        -2.202802        -2.482458
 H        -0.073662        -2.296563        -3.101851
 H         1.056668        -2.779304        -1.811824
 H         0.310039         0.112514        -2.578985
