19
Iteration:  3160charge 0 multiplicity 1
 C         0.237058         0.284837         0.275287
 C         1.281532        -0.274005        -0.634388
 O         2.143193        -1.311289        -0.201354
 C         2.694438        -0.058868        -0.831340
 C         2.626338        -0.174742        -2.356792
 C         2.932720        -1.435307        -3.175584
 O         1.835797        -2.313920        -3.062771
 C         0.547539        -1.598539        -2.815386
 C         1.003822        -0.330550        -2.163118
 H        -0.436489        -0.690465         0.626094
 H         0.726321         0.860596         1.080550
 H        -0.501342         0.917032        -0.127371
 H         3.423009         0.584597        -0.155331
 H         3.006668         0.753615        -2.842863
 H         3.113959        -1.286714        -4.308879
 H         3.722189        -2.008340        -2.760332
 H         0.101440        -1.443085        -3.721946
 H        -0.047609        -2.306284        -2.162031
 H         0.301051         0.535096        -2.207449
