19
Iteration:     1charge 0 multiplicity 1
 C         0.267313         0.381404         0.379443
 C         1.214012        -0.166612        -0.636763
 O         2.209407        -1.110064        -0.206622
 C         2.643425         0.064374        -0.908662
 C         2.464125        -0.215322        -2.416865
 C         2.969062        -1.544727        -2.997736
 O         1.805060        -2.230262        -3.458003
 C         0.723174        -1.927665        -2.577670
 C         0.944449        -0.474043        -2.135256
 H         0.798225         0.634180         1.301039
 H        -0.229283         1.280544         0.000443
 H        -0.509222        -0.352762         0.623454
 H         3.371303         0.695254        -0.410080
 H         2.662442         0.651534        -3.048796
 H         3.632257        -1.423603        -3.858390
 H         3.487421        -2.131441        -2.226951
 H        -0.201352        -2.080003        -3.141028
 H         0.727653        -2.601878        -1.710004
 H         0.273019         0.242392        -2.611482
