19
Iteration:  3341charge 0 multiplicity 1
 C         0.264360         0.316101         0.451499
 C         1.234471        -0.153815        -0.595835
 O         2.006970        -1.306819        -0.210967
 C         2.709544        -0.206043        -0.774957
 C         2.561539        -0.181687        -2.392541
 C         3.010693        -1.423338        -3.060525
 O         1.822957        -2.373276        -3.343893
 C         0.631513        -1.613256        -2.809291
 C         1.038836        -0.211162        -2.209288
 H         0.650157         1.142785         0.901989
 H        -0.707354         0.557801        -0.109303
 H        -0.135669        -0.687463         1.005897
 H         3.623734         0.195677        -0.160874
 H         3.142761         0.668893        -2.830696
 H         3.558878        -1.372491        -4.050303
 H         3.631739        -2.052964        -2.316273
 H        -0.062725        -1.545884        -3.643276
 H         0.171269        -2.122104        -1.983145
 H         0.383116         0.644924        -2.477187
