19
Iteration:  1978charge 0 multiplicity 1
 C         0.198030         0.413773         0.368270
 C         1.287062        -0.266919        -0.597517
 O         2.258246        -1.233856        -0.112612
 C         2.704592        -0.017841        -0.913742
 C         2.452534        -0.167037        -2.400981
 C         2.915307        -1.420330        -3.179895
 O         1.883808        -2.413018        -3.079481
 C         0.662701        -1.728610        -2.886349
 C         0.879590        -0.452654        -2.136812
 H         0.290136         1.506064         0.319838
 H        -0.763116         0.109930         0.145994
 H         0.515382         0.148584         1.447286
 H         3.512183         0.678240        -0.505807
 H         2.661180         0.829489        -2.956600
 H         3.050573        -1.052317        -4.253259
 H         3.884888        -1.713875        -2.704385
 H         0.261131        -1.542352        -3.955263
 H        -0.059437        -2.394235        -2.459835
 H         0.132703         0.315379        -2.256278
