19
Iteration:  1102
 C         0.171607         0.378732         0.324947
 C         1.246431        -0.110512        -0.633812
 O         2.281637        -1.120186        -0.155472
 C         2.731417         0.037560        -0.799352
 C         2.498119        -0.283343        -2.386085
 C         2.929526        -1.637301        -3.006779
 O         1.700396        -2.104796        -3.553790
 C         0.705753        -1.883816        -2.620212
 C         1.000188        -0.491195        -2.088046
 H        -0.619173         0.768334        -0.275194
 H        -0.268311        -0.564459         0.762843
 H         0.433482         1.093328         1.074208
 H         3.590091         0.664475        -0.411871
 H         2.886913         0.527056        -2.993062
 H         3.553214        -1.565775        -3.866597
 H         3.356091        -2.240336        -2.158732
 H        -0.282984        -2.003892        -3.181630
 H         0.819972        -2.659807        -1.795320
 H         0.373075         0.342803        -2.530886
