19
Iteration:  1688charge 0 multiplicity 1
 C         0.261410         0.360701         0.405420
 C         1.254720        -0.218885        -0.552315
 O         2.258686        -1.077166        -0.078876
 C         2.645116         0.101375        -0.891922
 C         2.489905        -0.250971        -2.343003
 C         2.933218        -1.601141        -2.933118
 O         1.765552        -2.183439        -3.709862
 C         0.650374        -1.842700        -2.749031
 C         0.996461        -0.546327        -2.035050
 H        -0.376478         1.167855        -0.217033
 H        -0.413445        -0.408791         0.780439
 H         0.760492         0.964098         1.149135
 H         3.541403         0.639724        -0.557668
 H         2.625767         0.679479        -2.927920
 H         3.865958        -1.580491        -3.617240
 H         3.207528        -2.395061        -2.178046
 H        -0.196171        -1.641277        -3.434271
 H         0.416237        -2.721485        -2.083206
 H         0.358828         0.319318        -2.343453
