19
Iteration:  1857charge 0 multiplicity 1
 C         0.266281         0.204375         0.382503
 C         1.247171        -0.260874        -0.636228
 O         2.308360        -1.162683        -0.250916
 C         2.668839         0.022250        -0.882574
 C         2.460340        -0.203103        -2.382344
 C         2.879093        -1.470056        -3.130697
 O         1.804347        -2.401921        -2.929407
 C         0.627603        -1.638756        -2.951919
 C         0.977397        -0.346912        -2.155201
 H        -0.481092         0.758164        -0.169764
 H        -0.224234        -0.642815         0.773861
 H         0.681878         0.912757         1.123859
 H         3.607529         0.514820        -0.278702
 H         2.750817         0.781869        -2.980001
 H         3.108190        -1.194080        -4.194678
 H         3.684590        -2.007376        -2.548996
 H         0.412120        -1.275003        -3.960040
 H        -0.229873        -2.127550        -2.553091
 H         0.320899         0.495193        -2.465170
