19
Iteration:  3810charge 0 multiplicity 1
 C         0.319303         0.561230         0.480665
 C         1.201368        -0.222971        -0.569961
 O         1.793147        -1.434828        -0.185418
 C         2.721012        -0.296464        -0.626596
 C         2.659307        -0.339624        -2.226415
 C         3.029343        -1.583057        -3.063541
 O         1.820866        -2.013818        -3.720242
 C         0.720867        -1.585513        -2.845455
 C         1.028275        -0.319616        -2.130503
 H         0.274900         1.590766         0.206308
 H        -0.649104         0.067991         0.584070
 H         0.887940         0.664082         1.450372
 H         3.544443        -0.203824         0.183108
 H         3.042570         0.625051        -2.648132
 H         3.760131        -1.477880        -3.918850
 H         3.346437        -2.372144        -2.451114
 H        -0.176995        -1.501685        -3.613383
 H         0.491242        -2.461665        -2.128288
 H         0.438588         0.552141        -2.634146
