19
Iteration:  1724
 C         0.292260         0.370497         0.362350
 C         1.188490        -0.183573        -0.641346
 O         2.190624        -1.196960        -0.112981
 C         2.627556        -0.006982        -0.867608
 C         2.530750        -0.234606        -2.347702
 C         2.994640        -1.465088        -3.141200
 O         1.780230        -2.271512        -3.458649
 C         0.666078        -1.829902        -2.607644
 C         0.971547        -0.429667        -2.134072
 H        -0.086468         1.469764        -0.051600
 H        -0.600877        -0.195929         0.482458
 H         0.713016         0.419951         1.333284
 H         3.359329         0.498574        -0.317730
 H         2.856132         0.805053        -2.805212
 H         3.421989        -1.072566        -4.049531
 H         3.773612        -2.080657        -2.550798
 H        -0.244363        -1.861159        -3.147903
 H         0.601877        -2.541031        -1.795677
 H         0.365214         0.275768        -2.657699
