19
Iteration:  4157charge 0 multiplicity 1
 C         0.268808         0.265626         0.330016
 C         1.187608        -0.303670        -0.659701
 O         1.930569        -1.471479        -0.162805
 C         2.743967        -0.347956        -0.667553
 C         2.735523        -0.309229        -2.142100
 C         2.874176        -1.711282        -2.770236
 O         1.724403        -1.995010        -3.535847
 C         0.675410        -1.215140        -3.139079
 C         1.176120        -0.179990        -2.204454
 H         0.738641         0.621750         1.332113
 H        -0.174593         1.172916        -0.151419
 H        -0.317089        -0.532952         0.705989
 H         3.550975         0.001069        -0.117239
 H         3.278650         0.566443        -2.561203
 H         3.805440        -1.762823        -3.317885
 H         2.881374        -2.385728        -1.976874
 H         0.160062        -0.805691        -4.056660
 H        -0.185037        -1.782734        -2.499738
 H         0.784425         0.860005        -2.380202
