19
Iteration:   966
 C         0.201796         0.271826         0.385173
 C         1.265340        -0.132103        -0.612402
 O         2.226690        -1.157260        -0.214431
 C         2.744713        -0.048949        -0.923987
 C         2.500954        -0.165035        -2.456512
 C         2.986280        -1.423382        -3.089639
 O         1.770301        -2.401840        -3.321595
 C         0.640351        -1.771957        -2.582707
 C         0.950916        -0.369185        -2.115374
 H        -0.289792         1.194364        -0.006280
 H        -0.570152        -0.484142         0.276543
 H         0.473333         0.500691         1.400209
 H         3.581951         0.568454        -0.367992
 H         2.722341         0.724036        -3.060665
 H         3.297366        -1.344516        -4.157849
 H         3.793408        -1.967283        -2.504482
 H        -0.270233        -1.959811        -3.295927
 H         0.340532        -2.295901        -1.616754
 H         0.439094         0.545780        -2.575184
