19
Iteration:  2845charge 0 multiplicity 1
 C         0.219303         0.174742         0.345864
 C         1.180437        -0.238142        -0.624219
 O         2.239972        -1.136981        -0.255389
 C         2.719270         0.034820        -0.871582
 C         2.619086        -0.158410        -2.420192
 C         2.969631        -1.512444        -3.077929
 O         1.750266        -2.351416        -3.138742
 C         0.575975        -1.695906        -2.751890
 C         1.043830        -0.359741        -2.161020
 H        -0.770909         0.591894        -0.106961
 H        -0.245133        -0.673243         0.903668
 H         0.797520         0.820647         0.938021
 H         3.327161         0.745202        -0.340490
 H         2.800517         0.713707        -3.006767
 H         3.255257        -1.175273        -4.056489
 H         3.740544        -2.084534        -2.623634
 H        -0.097443        -1.465432        -3.645681
 H        -0.030484        -2.193824        -1.934332
 H         0.404952         0.466059        -2.315724
