19
Iteration:  3556charge 0 multiplicity 1
 C         0.301957         0.471566         0.422734
 C         1.203898        -0.202989        -0.583878
 O         1.877851        -1.472591        -0.338779
 C         2.630279        -0.189409        -0.814739
 C         2.687642        -0.184616        -2.305746
 C         3.021641        -1.485046        -2.994615
 O         1.800302        -2.169682        -3.448499
 C         0.680603        -1.666113        -2.740050
 C         1.076037        -0.303661        -2.150708
 H        -0.673561        -0.155661         0.874997
 H         0.990599         0.707011         1.335408
 H        -0.002986         1.472314         0.104727
 H         3.507412        -0.018981        -0.112410
 H         3.280210         0.647611        -2.672588
 H         3.607615        -1.344046        -3.926165
 H         3.612095        -2.221797        -2.288087
 H        -0.167430        -1.488677        -3.529659
 H         0.251622        -2.387023        -2.024559
 H         0.458982         0.655559        -2.404009
