19
Iteration:  4893
 C         0.291643         0.382819         0.469105
 C         1.157056        -0.237247        -0.651347
 O         1.715073        -1.479007        -0.376955
 C         2.630694        -0.436832        -0.620956
 C         2.731106        -0.317843        -2.171465
 C         3.078964        -1.646980        -2.934355
 O         1.795802        -2.164578        -3.373421
 C         0.662542        -1.251054        -3.099534
 C         1.249486        -0.094692        -2.167054
 H         0.727057         0.191368         1.555028
 H         0.162348         1.349181         0.300675
 H        -0.753790        -0.066611         0.453796
 H         3.420270        -0.148093         0.255032
 H         3.226151         0.563057        -2.423703
 H         3.850155        -1.470485        -3.805325
 H         3.376336        -2.487128        -2.289386
 H         0.331601        -0.677881        -3.965688
 H        -0.186126        -1.773242        -2.578778
 H         0.989339         0.902201        -2.627227
