19
Iteration:  1208charge 0 multiplicity 1
 C         0.323346         0.342579         0.406197
 C         1.203292        -0.308040        -0.613027
 O         2.272180        -1.189149        -0.222478
 C         2.633761        -0.043499        -0.898796
 C         2.444218        -0.094376        -2.368402
 C         2.922251        -1.494287        -3.126359
 O         1.841543        -2.386575        -2.964905
 C         0.634565        -1.697368        -2.941950
 C         0.936840        -0.389816        -2.189211
 H         0.317511         1.588579         0.306270
 H        -0.704313         0.026873         0.332646
 H         0.626453        -0.196775         1.478450
 H         3.222238         0.627017        -0.417063
 H         2.858710         0.729688        -2.968677
 H         3.097257        -1.199988        -4.251797
 H         3.837001        -2.002511        -2.767244
 H         0.379772        -1.453281        -4.018909
 H        -0.099153        -2.386143        -2.560618
 H         0.418247         0.560513        -2.570583
