19
Iteration:  3633
 C         0.192989         0.256914         0.310931
 C         1.204302        -0.216286        -0.620465
 O         2.149151        -1.319085        -0.136628
 C         2.731779        -0.181362        -0.751561
 C         2.670877        -0.293557        -2.229704
 C         2.951995        -1.677984        -2.912514
 O         1.719359        -2.139578        -3.504031
 C         0.560339        -1.451122        -2.871368
 C         1.115744        -0.188732        -2.210236
 H         0.184956        -0.540267         1.193565
 H         0.342847         1.084438         1.046125
 H        -0.729937         0.257738        -0.211622
 H         3.421742         0.428433        -0.247731
 H         3.103130         0.524864        -2.771187
 H         3.600440        -1.529384        -3.789072
 H         3.371656        -2.555423        -2.303901
 H        -0.132306        -1.109678        -3.667493
 H         0.068319        -2.188877        -2.316337
 H         0.685859         0.866193        -2.496928
