19
Iteration:  1511
 C         0.432110         0.497019         0.435010
 C         1.148909        -0.192362        -0.686734
 O         2.006475        -1.386411        -0.257217
 C         2.598679        -0.138261        -0.860952
 C         2.502909        -0.157584        -2.365233
 C         2.868249        -1.309187        -3.322497
 O         2.052312        -2.373724        -2.875229
 C         0.729000        -1.792718        -2.816711
 C         0.888374        -0.339991        -2.217653
 H         0.247701         1.477585         0.182822
 H        -0.572111        -0.024522         0.675985
 H         1.072252         0.269410         1.400420
 H         3.473442         0.313872        -0.330084
 H         2.686792         0.819791        -2.747593
 H         2.559518        -0.965425        -4.312675
 H         3.826622        -1.735301        -3.071310
 H         0.292110        -1.747943        -3.845422
 H         0.222533        -2.485518        -2.224577
 H         0.183243         0.299668        -2.807116
