19
Iteration:  1968
 C         0.258070         0.318094         0.310500
 C         1.197941        -0.270499        -0.648566
 O         2.327216        -1.163189        -0.139091
 C         2.706996        -0.042420        -0.854180
 C         2.421118        -0.170768        -2.382680
 C         2.911890        -1.383375        -3.146486
 O         1.856510        -2.400994        -3.029076
 C         0.601054        -1.717259        -2.877776
 C         0.952691        -0.441123        -2.167293
 H         0.306824         1.325482         0.231706
 H        -0.762215         0.138188         0.152183
 H         0.514119         0.055417         1.407250
 H         3.416209         0.579295        -0.277392
 H         2.515386         0.774758        -2.950744
 H         3.142695        -1.173716        -4.257529
 H         3.787274        -1.960925        -2.769216
 H         0.200489        -1.397313        -3.910912
 H        -0.071331        -2.338347        -2.359496
 H         0.371181         0.376560        -2.592149
