19
Iteration:  2197charge 0 multiplicity 1
 C         0.251123         0.010206         0.360210
 C         1.250453        -0.140499        -0.686277
 O         2.232830        -1.130505        -0.327172
 C         2.653473         0.145479        -0.921562
 C         2.517497        -0.169112        -2.486995
 C         2.968953        -1.608620        -2.895677
 O         1.799701        -2.373553        -3.082875
 C         0.561916        -1.652230        -2.761161
 C         0.985412        -0.249152        -2.189530
 H        -0.173895         1.117148         0.332774
 H        -0.461374        -0.707680         0.477507
 H         0.895872        -0.015738         1.329274
 H         3.244714         0.791305        -0.371481
 H         2.825794         0.586958        -3.213186
 H         3.541421        -1.474920        -3.878016
 H         3.712510        -2.126632        -2.232172
 H        -0.107645        -1.678692        -3.653149
 H         0.152283        -2.193900        -1.917375
 H         0.533787         0.609735        -2.571310
