19
Iteration:  3303
 C         0.211550         0.298866         0.255363
 C         1.226482        -0.263811        -0.606344
 O         2.064555        -1.289043        -0.175238
 C         2.710149        -0.121558        -0.718759
 C         2.666371        -0.200863        -2.294062
 C         2.973303        -1.442382        -3.227856
 O         1.763922        -2.348917        -3.286845
 C         0.606958        -1.620987        -2.755970
 C         1.098073        -0.281924        -2.124206
 H         0.648773         0.755787         1.236164
 H        -0.251179         1.092711        -0.281602
 H        -0.456273        -0.313002         0.713398
 H         3.284087         0.378671         0.008792
 H         2.982299         0.757605        -2.678423
 H         3.142945        -0.981261        -4.180454
 H         3.810153        -1.969804        -2.893808
 H        -0.094898        -1.459095        -3.700785
 H         0.108382        -2.222610        -1.918720
 H         0.604989         0.621454        -2.476446
