19
Iteration:   841
 C         0.264910         0.081779         0.350924
 C         1.230291        -0.201020        -0.708635
 O         2.293634        -1.154275        -0.301388
 C         2.693717         0.061950        -0.901571
 C         2.518660        -0.164553        -2.460144
 C         2.875973        -1.467649        -3.102720
 O         1.819661        -2.388841        -2.817847
 C         0.558829        -1.614245        -2.812401
 C         0.985245        -0.297917        -2.211099
 H        -0.283807         0.986628         0.129439
 H        -0.471546        -0.713110         0.388851
 H         0.719184         0.048161         1.357816
 H         3.600888         0.440539        -0.452669
 H         2.758444         0.694232        -3.145647
 H         2.983629        -1.414443        -4.204788
 H         3.790611        -1.900932        -2.671251
 H         0.049633        -1.506341        -3.828036
 H         0.036750        -2.390484        -2.189217
 H         0.426977         0.541244        -2.544149
