19
Iteration:  4933charge 0 multiplicity 1
 C         0.260666         0.354857         0.222936
 C         1.221016        -0.276841        -0.613391
 O         1.796852        -1.537462        -0.148923
 C         2.724644        -0.455265        -0.577479
 C         2.752428        -0.362630        -2.056447
 C         3.057673        -1.572266        -2.985120
 O         1.684290        -2.123518        -3.408143
 C         0.666184        -1.127265        -3.155841
 C         1.171828        -0.205087        -2.144174
 H         0.794609         0.915568         0.987065
 H        -0.136122         1.220190        -0.503099
 H        -0.530793        -0.221588         0.658057
 H         3.445076        -0.125023         0.142567
 H         3.163824         0.651355        -2.433473
 H         3.609951        -1.343043        -3.853881
 H         3.506472        -2.320769        -2.355504
 H         0.364448        -0.706865        -4.148367
 H        -0.191181        -1.743674        -2.834074
 H         0.958106         0.840775        -2.257695
