19
Iteration:  3815charge 0 multiplicity 1
 C         0.368830         0.539249         0.475935
 C         1.210938        -0.212098        -0.565832
 O         1.781341        -1.413753        -0.200837
 C         2.718832        -0.319101        -0.639506
 C         2.678808        -0.278895        -2.192607
 C         3.016947        -1.578659        -3.031543
 O         1.790905        -2.027247        -3.723091
 C         0.724613        -1.629818        -2.890955
 C         1.024484        -0.298025        -2.119232
 H         0.002052         1.553565         0.065438
 H        -0.531822        -0.090976         0.638227
 H         0.930694         0.631703         1.435371
 H         3.451486        -0.049198         0.136028
 H         2.998174         0.667542        -2.629850
 H         3.746856        -1.536603        -3.834786
 H         3.234777        -2.507067        -2.340965
 H        -0.051187        -1.598143        -3.605541
 H         0.412225        -2.426327        -2.271040
 H         0.667505         0.613679        -2.488239
