19
Iteration:  2687
 C         0.253700         0.303696         0.265657
 C         1.229762        -0.178017        -0.679246
 O         2.112484        -1.246614        -0.162922
 C         2.688462        -0.121181        -0.837274
 C         2.518047        -0.184947        -2.397894
 C         2.967809        -1.335241        -3.303206
 O         1.892853        -2.357415        -3.055347
 C         0.653365        -1.765182        -2.663323
 C         0.956512        -0.356905        -2.122713
 H        -0.085344         1.369494         0.002128
 H        -0.594792        -0.389448         0.356746
 H         0.665367         0.585992         1.349028
 H         3.409530         0.482143        -0.166153
 H         2.960896         0.800540        -2.839999
 H         2.833071        -1.079356        -4.336179
 H         3.995667        -1.823346        -3.261930
 H         0.003132        -1.710959        -3.541906
 H         0.253620        -2.435721        -1.979981
 H         0.214634         0.383510        -2.452153
