19
Iteration:   170charge 0 multiplicity 1
 C         0.346050         0.334154         0.421839
 C         1.260384        -0.162687        -0.628969
 O         2.013833        -1.304447        -0.450275
 C         2.670069        -0.120211        -0.945399
 C         2.457023        -0.154125        -2.459396
 C         3.043051        -1.417646        -3.078806
 O         1.929498        -2.426038        -3.045596
 C         0.687754        -1.715566        -2.587137
 C         0.862473        -0.203456        -2.182642
 H        -0.480210         0.914834        -0.002416
 H        -0.275077        -0.536369         0.886351
 H         0.817097         0.943195         1.184439
 H         3.508049         0.239873        -0.314311
 H         2.748670         0.755532        -3.021901
 H         3.471982        -1.202605        -4.094545
 H         3.808876        -1.817399        -2.296223
 H        -0.008380        -1.604160        -3.525741
 H         0.109218        -2.416696        -1.944914
 H         0.234984         0.551678        -2.641240
