19
Iteration:  2857
 C         0.161572         0.256858         0.403617
 C         1.258023        -0.271068        -0.676411
 O         2.268169        -1.256974        -0.285834
 C         2.618237         0.050091        -0.861354
 C         2.591220        -0.139053        -2.430785
 C         2.958368        -1.476198        -3.100218
 O         1.770168        -2.370609        -3.162501
 C         0.627585        -1.660905        -2.688711
 C         1.031111        -0.325607        -2.180810
 H        -0.524386         0.945827        -0.171949
 H        -0.263687        -0.573588         1.051450
 H         0.506922         0.962495         1.174860
 H         3.263195         0.686121        -0.186326
 H         2.925771         0.722712        -2.989818
 H         3.306959        -1.477839        -4.109940
 H         3.669121        -1.986743        -2.514735
 H        -0.158523        -1.718803        -3.467822
 H         0.262731        -2.314955        -1.811645
 H         0.400540         0.454806        -2.615406
