19
Iteration:  3176
 C         0.185639         0.306448         0.372454
 C         1.195037        -0.223165        -0.565689
 O         2.167732        -1.338401        -0.322885
 C         2.750615        -0.154118        -0.849425
 C         2.521323        -0.193583        -2.392284
 C         2.954465        -1.416619        -3.159807
 O         1.827438        -2.328069        -2.958089
 C         0.661897        -1.608655        -2.858966
 C         1.013420        -0.299545        -2.157188
 H        -0.223738        -0.362830         0.997818
 H         0.490299         1.086645         1.098143
 H        -0.584621         0.903237        -0.266071
 H         3.524858         0.250342        -0.316300
 H         2.742542         0.746842        -2.883722
 H         3.064578        -1.111856        -4.189465
 H         3.924881        -1.936903        -2.887352
 H         0.118490        -1.269730        -3.915118
 H        -0.024532        -2.246920        -2.333115
 H         0.608775         0.536762        -2.694356
