19
Iteration:  1300
 C         0.306476         0.450150         0.406254
 C         1.209451        -0.176002        -0.639886
 O         2.076902        -1.333576        -0.335394
 C         2.646236        -0.096966        -0.819871
 C         2.478827        -0.204930        -2.430712
 C         3.041158        -1.363606        -3.158564
 O         1.866912        -2.314721        -3.178376
 C         0.669302        -1.813319        -2.603883
 C         0.933101        -0.319118        -2.216691
 H        -0.444136         1.239468         0.048144
 H        -0.337212        -0.425924         0.906214
 H         0.902055         0.759147         1.180252
 H         3.638880         0.221057        -0.171205
 H         2.807435         0.753621        -2.764985
 H         3.273788        -1.216339        -4.253193
 H         3.924448        -1.928904        -2.685833
 H        -0.228529        -1.917264        -3.245905
 H         0.518108        -2.353284        -1.670495
 H         0.376196         0.395678        -2.795496
