19
Iteration:  4973
 C         0.146304         0.312508         0.291674
 C         1.205760        -0.234738        -0.607167
 O         1.821902        -1.500340        -0.264616
 C         2.683552        -0.441705        -0.529354
 C         2.801306        -0.423964        -2.084208
 C         3.032563        -1.588624        -3.026735
 O         1.676444        -2.208033        -3.298271
 C         0.680497        -1.126656        -3.132697
 C         1.282862        -0.042796        -2.193010
 H         0.514527         0.709187         1.205148
 H        -0.476165         1.218037        -0.118062
 H        -0.566956        -0.454130         0.581725
 H         3.483318        -0.158921         0.103905
 H         3.541414         0.419036        -2.335634
 H         3.490251        -1.238782        -4.052387
 H         3.770994        -2.493049        -2.812814
 H         0.252465        -0.698312        -4.088358
 H        -0.194610        -1.518394        -2.648107
 H         1.153363         0.960542        -2.675274
