19
Iteration:  3933charge 0 multiplicity 1
 C         0.145586         0.309761         0.308999
 C         1.243926        -0.197410        -0.583991
 O         2.032948        -1.432926        -0.255318
 C         2.748523        -0.272708        -0.602447
 C         2.827839        -0.315534        -2.204624
 C         2.878444        -1.693027        -2.899655
 O         1.738901        -2.018498        -3.616452
 C         0.570769        -1.430059        -2.890631
 C         1.160106        -0.163911        -2.123339
 H        -0.563180        -0.411083         0.309082
 H         0.437485         0.565304         1.323110
 H        -0.253839         1.223973        -0.201108
 H         3.458738         0.097016         0.113073
 H         3.393202         0.455148        -2.695470
 H         3.698659        -1.668518        -3.596173
 H         3.022818        -2.444868        -2.234506
 H        -0.211768        -1.176170        -3.658401
 H         0.018975        -2.137430        -2.218352
 H         0.696298         0.747956        -2.483846
