19
Iteration:  1248
 C         0.228525         0.346826         0.395310
 C         1.215743        -0.192347        -0.639060
 O         2.123281        -1.269617        -0.234714
 C         2.746582        -0.181367        -0.896304
 C         2.516144        -0.160373        -2.448406
 C         2.818059        -1.397835        -3.249928
 O         1.956020        -2.351522        -2.919172
 C         0.695042        -1.726741        -2.773573
 C         0.980370        -0.303819        -2.189268
 H         0.059017         1.348700         0.246684
 H        -0.748898        -0.118582         0.247768
 H         0.596103         0.256635         1.410904
 H         3.519156         0.376518        -0.345730
 H         2.740880         0.903032        -2.794128
 H         2.740385        -1.238216        -4.324127
 H         3.798121        -1.777152        -3.127130
 H         0.130853        -1.573189        -3.698904
 H         0.073626        -2.455850        -2.117491
 H         0.373149         0.468940        -2.636772
