19
Iteration:  2631
 C         0.420599         0.518247         0.386799
 C         1.131865        -0.252782        -0.673686
 O         2.009498        -1.312428        -0.178002
 C         2.626382        -0.131560        -0.833381
 C         2.374186        -0.180706        -2.366958
 C         2.936614        -1.251789        -3.264698
 O         1.999372        -2.359485        -3.153335
 C         0.757925        -1.854998        -2.720175
 C         0.952118        -0.464147        -2.182342
 H        -0.196019         1.430481         0.060150
 H        -0.357518        -0.044081         1.027309
 H         1.408904         0.902278         0.935634
 H         3.245155         0.401495        -0.212559
 H         2.738433         0.829761        -2.743175
 H         3.109889        -1.078336        -4.302082
 H         3.848450        -1.504817        -2.653036
 H         0.020762        -1.744856        -3.511939
 H         0.339575        -2.466245        -1.997262
 H         0.251969         0.295896        -2.674349
