19
Iteration:  3202
 C         0.349473         0.295582         0.423719
 C         1.185036        -0.200689        -0.668473
 O         1.976665        -1.408086        -0.311576
 C         2.679056        -0.129361        -0.872465
 C         2.547380        -0.079303        -2.422959
 C         2.928887        -1.444635        -3.132721
 O         1.915088        -2.371042        -2.893420
 C         0.683555        -1.650845        -2.917622
 C         0.986357        -0.212093        -2.168078
 H         0.235035        -0.524312         1.231088
 H         0.718424         1.157116         0.983983
 H        -0.599677         0.676816         0.158322
 H         3.512988         0.314821        -0.141233
 H         2.932222         0.873310        -2.938963
 H         2.963005        -1.131666        -4.208533
 H         3.894752        -1.925507        -2.894464
 H         0.358977        -1.398945        -3.996728
 H        -0.067120        -2.335727        -2.414345
 H         0.412809         0.677313        -2.614717
