19
Iteration:  2240
 C         0.191792         0.217608         0.285308
 C         1.271927        -0.227636        -0.663914
 O         2.252547        -1.201347        -0.211286
 C         2.730480         0.053897        -0.842696
 C         2.486068        -0.228202        -2.376773
 C         2.907787        -1.428258        -3.146365
 O         1.834596        -2.378854        -3.137328
 C         0.628370        -1.729690        -2.655355
 C         0.982280        -0.300609        -2.161433
 H        -0.526594         0.944589        -0.295329
 H        -0.328229        -0.605156         0.613585
 H         0.547687         0.935109         1.108705
 H         3.370098         0.634886        -0.406928
 H         2.737011         0.671268        -2.965861
 H         3.216811        -1.341848        -4.259344
 H         3.782695        -1.933110        -2.679097
 H        -0.014268        -1.526037        -3.588390
 H         0.012630        -2.384480        -1.911558
 H         0.381041         0.470336        -2.523591
