19
Iteration:  3085
 C         0.355157         0.305283         0.409215
 C         1.171990        -0.181240        -0.679010
 O         2.211631        -1.299653        -0.287155
 C         2.666487        -0.066955        -0.867576
 C         2.513840        -0.135079        -2.411304
 C         2.963779        -1.467478        -2.854008
 O         1.809199        -2.286049        -3.299353
 C         0.648677        -1.733814        -2.740932
 C         0.892784        -0.315954        -2.267977
 H        -0.728637         0.331695         0.037935
 H         0.300145        -0.329073         1.304509
 H         0.644708         1.221894         0.829501
 H         3.277484         0.700047        -0.170305
 H         3.038697         0.704114        -2.852237
 H         3.631415        -1.439174        -3.730305
 H         3.396172        -2.141216        -2.140984
 H        -0.136480        -1.772645        -3.660141
 H         0.292606        -2.404022        -1.893454
 H         0.348447         0.513400        -2.639227
