19
Iteration:   121
 C         0.273497         0.313120         0.366933
 C         1.198535        -0.227393        -0.630751
 O         2.226880        -1.182038        -0.128195
 C         2.575617         0.054431        -0.880418
 C         2.491954        -0.215610        -2.395547
 C         2.946958        -1.564789        -3.120183
 O         1.855668        -2.376721        -3.258134
 C         0.690299        -1.702528        -2.743172
 C         0.963764        -0.353648        -2.173078
 H         0.326074         1.450598         0.349800
 H        -0.744015         0.044483         0.242175
 H         0.664116         0.077230         1.367130
 H         3.333045         0.802945        -0.380793
 H         2.781479         0.641997        -3.014393
 H         3.272057        -1.226227        -4.096082
 H         3.776997        -2.008490        -2.673757
 H        -0.094032        -1.793869        -3.466669
 H         0.323791        -2.302944        -1.900582
 H         0.304410         0.477306        -2.557341
