19
Iteration:  4537charge 0 multiplicity 1
 C         0.291399         0.415884         0.297284
 C         1.249907        -0.240612        -0.665942
 O         1.657539        -1.561418        -0.348195
 C         2.702452        -0.663992        -0.601255
 C         2.750952        -0.284352        -2.114134
 C         2.933950        -1.441260        -3.132525
 O         1.797516        -2.168505        -3.101811
 C         0.746245        -1.260219        -3.036423
 C         1.198724        -0.095398        -2.175180
 H         0.643691         0.921130         1.252711
 H        -0.083355         1.340735        -0.356820
 H        -0.599359        -0.164311         0.498569
 H         3.489815        -0.420756         0.138286
 H         3.400195         0.650857        -2.302192
 H         3.166098        -1.045600        -4.182208
 H         3.685702        -2.131477        -2.758572
 H         0.562979        -0.844453        -3.961660
 H        -0.162530        -1.891695        -2.772036
 H         1.066536         0.958530        -2.439928
