19
Iteration:  1892charge 0 multiplicity 1
 C         0.295560         0.042914         0.367584
 C         1.204999        -0.250837        -0.730173
 O         2.186137        -1.200578        -0.410243
 C         2.681794         0.030856        -0.925850
 C         2.512934        -0.106185        -2.453106
 C         2.910695        -1.468695        -3.012847
 O         1.794172        -2.387070        -2.803342
 C         0.612124        -1.589686        -2.773106
 C         1.047133        -0.219455        -2.292140
 H        -0.477647         0.638178         0.076708
 H        -0.175479        -0.884917         0.835738
 H         0.804086         0.535860         1.302885
 H         3.545898         0.452947        -0.263453
 H         2.888087         0.708900        -3.089745
 H         3.237757        -1.631390        -4.025441
 H         3.758610        -1.857968        -2.409802
 H         0.164075        -1.590080        -3.762667
 H        -0.100169        -2.029878        -2.119037
 H         0.436667         0.667337        -2.517107
