19
Iteration:   322charge 0 multiplicity 1
 C         0.314858         0.226251         0.456534
 C         1.260892        -0.113914        -0.635471
 O         2.112937        -1.172459        -0.364699
 C         2.660528         0.054934        -0.906416
 C         2.544702        -0.095948        -2.478521
 C         2.964849        -1.585681        -2.903688
 O         1.837947        -2.347958        -3.281203
 C         0.605029        -1.786759        -2.679454
 C         0.942751        -0.323358        -2.208680
 H        -0.307247         1.112084         0.254288
 H        -0.304135        -0.746559         0.475715
 H         0.669773         0.231182         1.483353
 H         3.492675         0.630923        -0.282980
 H         2.904947         0.793098        -2.991765
 H         3.674654        -1.562289        -3.743767
 H         3.573415        -2.089025        -2.129044
 H        -0.151636        -1.862803        -3.424392
 H         0.322626        -2.300728        -1.719683
 H         0.335810         0.491258        -2.559693
