19
Iteration:  1982charge 0 multiplicity 1
 C         0.223898         0.459557         0.391049
 C         1.295370        -0.264258        -0.546329
 O         2.222006        -1.248286        -0.123680
 C         2.687508        -0.004675        -0.923737
 C         2.451728        -0.166593        -2.443876
 C         2.918751        -1.413684        -3.185354
 O         1.918718        -2.419148        -3.091837
 C         0.662067        -1.758406        -2.917234
 C         0.886243        -0.424793        -2.086119
 H         0.272101         1.508285         0.284127
 H        -0.800395        -0.041148         0.147012
 H         0.395842         0.148596         1.418723
 H         3.401078         0.617680        -0.570871
 H         2.774295         0.715377        -2.844728
 H         3.033469        -1.144346        -4.258876
 H         3.862128        -1.748509        -2.794558
 H         0.193449        -1.460531        -3.881842
 H        -0.001705        -2.486600        -2.439981
 H         0.069654         0.306868        -2.287639
