19
Iteration:  2369
 C         0.240262         0.388671         0.328933
 C         1.253718        -0.179310        -0.594033
 O         2.083249        -1.279461        -0.272231
 C         2.722334        -0.185711        -0.965958
 C         2.425946        -0.156961        -2.420943
 C         2.902393        -1.297436        -3.299563
 O         1.992380        -2.379710        -2.975149
 C         0.711884        -1.812115        -2.635704
 C         0.924549        -0.297688        -2.122557
 H         0.006608         1.484714         0.146525
 H        -0.672831        -0.074063         0.201135
 H         0.503197         0.119946         1.404048
 H         3.599481         0.189475        -0.473600
 H         2.740901         0.825606        -2.880322
 H         2.854794        -1.130850        -4.357479
 H         3.914670        -1.625264        -3.007562
 H         0.041228        -1.847167        -3.423965
 H         0.274355        -2.470133        -1.782259
 H         0.309208         0.427312        -2.570556
