19
Iteration:  4962
 C         0.090335         0.355610         0.321554
 C         1.224291        -0.202179        -0.547982
 O         1.842744        -1.551571        -0.182952
 C         2.698392        -0.462508        -0.557747
 C         2.809517        -0.412091        -2.120957
 C         2.979267        -1.644490        -3.103895
 O         1.702443        -2.152043        -3.342872
 C         0.735861        -1.132098        -3.143451
 C         1.257885        -0.079966        -2.173176
 H         0.484982         0.912379         1.129990
 H        -0.310495         1.070044        -0.493656
 H        -0.710224        -0.324325         0.596855
 H         3.408405        -0.072133         0.128595
 H         3.309066         0.576277        -2.376908
 H         3.453250        -1.245715        -4.095483
 H         3.581979        -2.461649        -2.508014
 H         0.419442        -0.721281        -4.165571
 H        -0.052781        -1.686555        -2.662761
 H         1.085902         1.000922        -2.455044
