19
Iteration:   496
 C         0.216184         0.364326         0.368312
 C         1.200751        -0.184435        -0.649336
 O         2.231976        -1.282078        -0.304207
 C         2.681088        -0.004397        -0.834517
 C         2.524608        -0.156977        -2.378981
 C         2.924738        -1.438860        -3.178862
 O         1.809331        -2.332242        -3.218289
 C         0.676108        -1.808052        -2.565348
 C         1.010845        -0.363204        -2.197158
 H        -0.726973         0.823950        -0.276589
 H        -0.185938        -0.383188         0.914971
 H         0.572241         1.220378         0.976283
 H         3.345893         0.455416        -0.123002
 H         2.906422         0.702052        -2.848026
 H         3.279773        -1.340521        -4.265683
 H         3.672095        -1.779190        -2.476825
 H        -0.168664        -1.864368        -3.177201
 H         0.403918        -2.308501        -1.613558
 H         0.383256         0.269888        -2.751613
