19
Iteration:  4655charge 0 multiplicity 1
 C         0.100269         0.394389         0.205555
 C         1.221676        -0.210782        -0.616055
 O         1.913430        -1.550992        -0.186325
 C         2.743111        -0.412376        -0.527205
 C         2.791242        -0.378277        -2.130791
 C         2.998973        -1.559395        -3.040265
 O         1.685381        -2.113147        -3.374660
 C         0.610770        -1.236851        -3.080658
 C         1.300018        -0.161846        -2.112425
 H        -0.015500        -0.001195         1.279349
 H         0.214648         1.400911         0.184775
 H        -0.808911         0.151027        -0.359355
 H         3.705879        -0.336137         0.128553
 H         3.269754         0.589646        -2.435576
 H         3.367422        -1.335535        -4.026656
 H         3.532077        -2.250966        -2.341794
 H         0.106538        -0.903066        -4.009068
 H        -0.113100        -1.812697        -2.516530
 H         0.910928         0.769442        -2.531290
