19
Iteration:  3106
 C         0.254719         0.260772         0.443920
 C         1.202741        -0.172253        -0.583391
 O         2.105436        -1.217184        -0.299090
 C         2.724062         0.003292        -0.908158
 C         2.543740        -0.179821        -2.417611
 C         3.057118        -1.537031        -2.993747
 O         1.812538        -2.331084        -3.284148
 C         0.624738        -1.686378        -2.755892
 C         0.989521        -0.339324        -2.141429
 H        -0.870338         0.044017         0.180981
 H         0.209249        -0.177329         1.433643
 H         0.384978         1.256737         0.612997
 H         3.562104         0.525429        -0.242313
 H         2.557073         0.702308        -3.060809
 H         3.545151        -1.532451        -4.005774
 H         3.662205        -2.120778        -2.383889
 H        -0.019911        -1.428289        -3.711191
 H         0.013168        -2.391595        -2.084245
 H         0.461878         0.574192        -2.364769
