19
Iteration:   284
 C         0.334165         0.282093         0.418005
 C         1.227662        -0.241814        -0.652652
 O         2.210873        -1.281876        -0.340927
 C         2.651812         0.011385        -0.889281
 C         2.515927        -0.082322        -2.401166
 C         2.982554        -1.496843        -2.965001
 O         1.832843        -2.362380        -3.133267
 C         0.546231        -1.703357        -2.781041
 C         0.969907        -0.310606        -2.217651
 H        -0.546274         0.711418        -0.196440
 H        -0.056339        -0.480147         1.083884
 H         0.747861         1.167434         1.012636
 H         3.194496         0.706795        -0.313820
 H         2.948636         0.782474        -2.922058
 H         3.534473        -1.445756        -3.971108
 H         3.633143        -2.005775        -2.243301
 H        -0.192814        -1.806042        -3.657800
 H         0.083205        -2.367808        -2.038838
 H         0.169675         0.411120        -2.530791
