19
Iteration:  3611
 C         0.098272         0.253955         0.399902
 C         1.264164        -0.162250        -0.574953
 O         2.033005        -1.306648        -0.222144
 C         2.772138        -0.161213        -0.688061
 C         2.701022        -0.278774        -2.319671
 C         3.003184        -1.624463        -3.073072
 O         1.690829        -2.204840        -3.448789
 C         0.583265        -1.432384        -2.820921
 C         1.202712        -0.282620        -2.191682
 H        -0.237635        -0.554009         1.207218
 H         0.314665         1.157477         1.072840
 H        -0.674913         0.443077        -0.322642
 H         3.451245         0.218851         0.029814
 H         3.125269         0.598360        -2.788411
 H         3.624874        -1.583675        -3.985975
 H         3.469466        -2.355911        -2.307147
 H        -0.175322        -1.253393        -3.619169
 H         0.207115        -2.112779        -2.101064
 H         0.764192         0.751401        -2.465635
