19
Iteration:  4324charge 0 multiplicity 1
 C         0.268233         0.665463         0.364690
 C         1.136550        -0.247142        -0.455854
 O         1.781280        -1.461116        -0.153023
 C         2.655489        -0.465557        -0.573160
 C         2.682424        -0.474037        -2.103103
 C         3.026687        -1.673919        -2.969789
 O         1.837316        -1.782110        -3.899983
 C         0.769204        -1.501651        -2.939365
 C         1.137836        -0.379610        -2.102769
 H         0.803667         1.103062         1.184392
 H        -0.012753         1.561006        -0.287637
 H        -0.628602         0.062454         0.851212
 H         3.461977        -0.045636         0.203756
 H         3.055146         0.428283        -2.544810
 H         3.918891        -1.616734        -3.632054
 H         3.050601        -2.652527        -2.512847
 H        -0.137178        -1.417468        -3.507155
 H         0.495562        -2.405159        -2.327600
 H         0.916451         0.665716        -2.470933
