19
Iteration:  1960
 C         0.299807         0.278342         0.305457
 C         1.197708        -0.290511        -0.659743
 O         2.318420        -1.151506        -0.189259
 C         2.647156         0.006917        -0.817109
 C         2.474120        -0.176372        -2.415535
 C         2.914951        -1.417063        -3.135042
 O         1.846227        -2.386574        -2.991802
 C         0.565078        -1.723987        -2.892421
 C         0.988456        -0.381754        -2.143574
 H         0.340508         1.346073         0.208887
 H        -0.763493        -0.182109         0.093491
 H         0.489939        -0.073499         1.337949
 H         3.239676         0.664522        -0.372594
 H         2.710084         0.700639        -2.830500
 H         3.065507        -1.248775        -4.200643
 H         3.773461        -1.911803        -2.732511
 H         0.020132        -1.442785        -3.781428
 H        -0.067757        -2.380823        -2.319831
 H         0.468350         0.458786        -2.625905
