19
Iteration:  3394
 C         0.296493         0.352470         0.431352
 C         1.222523        -0.221564        -0.573730
 O         2.052546        -1.372295        -0.290475
 C         2.694749        -0.098240        -0.798066
 C         2.539563        -0.147123        -2.344880
 C         2.947174        -1.591162        -2.895521
 O         1.827020        -2.206847        -3.447560
 C         0.663854        -1.670720        -2.821337
 C         0.995459        -0.268008        -2.210949
 H         0.754530         1.330968         0.630221
 H        -0.786225         0.439956         0.018564
 H         0.407685        -0.270991         1.466635
 H         3.537708         0.424092        -0.168336
 H         2.917185         0.745494        -2.861526
 H         3.643083        -1.581620        -3.739480
 H         3.276297        -2.171659        -2.048832
 H         0.021427        -1.548545        -3.826699
 H         0.300675        -2.141510        -1.860737
 H         0.481658         0.639893        -2.484146
