19
Iteration:  3336charge 0 multiplicity 1
 C         0.219159         0.289780         0.447175
 C         1.254247        -0.119989        -0.610936
 O         2.029471        -1.288026        -0.202052
 C         2.714894        -0.249765        -0.794963
 C         2.559641        -0.192978        -2.363156
 C         3.009878        -1.442722        -3.090556
 O         1.813552        -2.341307        -3.333400
 C         0.646248        -1.624676        -2.810372
 C         1.060865        -0.224543        -2.175402
 H         0.557012         1.234174         1.093022
 H        -0.619846         0.632744        -0.133993
 H        -0.078932        -0.514400         0.963969
 H         3.390886         0.219940        -0.182758
 H         3.007490         0.705977        -2.754195
 H         3.492703        -1.351754        -4.034877
 H         3.649420        -2.023665        -2.498748
 H        -0.083127        -1.657000        -3.715987
 H         0.034864        -2.146266        -1.990680
 H         0.531036         0.616274        -2.630343
