19
Iteration:   936charge 0 multiplicity 1
 C         0.316350         0.146136         0.395504
 C         1.232662        -0.226621        -0.679793
 O         2.291074        -1.091406        -0.237437
 C         2.660681         0.112353        -0.903025
 C         2.579648        -0.203827        -2.435853
 C         2.977796        -1.528429        -3.003144
 O         1.747106        -2.371103        -3.161932
 C         0.525795        -1.692920        -2.794586
 C         0.953907        -0.382159        -2.117818
 H        -0.498756         0.788314        -0.126540
 H        -0.146884        -0.721982         0.772369
 H         0.721126         0.660300         1.356843
 H         3.125266         0.839008        -0.383507
 H         2.922446         0.582373        -3.155879
 H         3.177517        -1.408875        -4.074339
 H         3.678415        -2.103173        -2.455095
 H        -0.068710        -1.473461        -3.765463
 H        -0.006435        -2.216413        -2.028411
 H         0.478534         0.631091        -2.510386
