19
Iteration:  1979
 C         0.201290         0.432056         0.372345
 C         1.291452        -0.266764        -0.585779
 O         2.249109        -1.238518        -0.114422
 C         2.702443        -0.012519        -0.915809
 C         2.454013        -0.165988        -2.411962
 C         2.916137        -1.420516        -3.180066
 O         1.891755        -2.414582        -3.083040
 C         0.662682        -1.737331        -2.892099
 C         0.878903        -0.445333        -2.124824
 H         0.284096         1.441048         0.318607
 H        -0.763986         0.073833         0.148698
 H         0.491977         0.143563         1.457766
 H         3.469031         0.651683        -0.539616
 H         2.687011         0.792405        -2.921038
 H         3.044625        -1.065952        -4.266969
 H         3.879331        -1.712284        -2.722504
 H         0.239852        -1.525009        -3.951797
 H        -0.030074        -2.397715        -2.468664
 H         0.117986         0.305414        -2.252832
