19
Iteration:   645charge 0 multiplicity 1
 C         0.260224         0.199495         0.379305
 C         1.233380        -0.167407        -0.674891
 O         2.197878        -1.159813        -0.270009
 C         2.710372        -0.039298        -0.841856
 C         2.519288        -0.128649        -2.453243
 C         2.937260        -1.501067        -3.186921
 O         1.831242        -2.354256        -2.969220
 C         0.631113        -1.743074        -2.683876
 C         0.971718        -0.301813        -2.283539
 H        -0.115483         1.168754         0.219618
 H        -0.807248        -0.466503         0.037572
 H         0.566701        -0.063101         1.467480
 H         3.414902         0.545603        -0.336141
 H         2.824413         0.855034        -2.864885
 H         3.088486        -1.292999        -4.324955
 H         3.873730        -1.961765        -2.774376
 H        -0.211352        -1.718593        -3.379345
 H         0.299835        -2.353107        -1.862699
 H         0.395525         0.566298        -2.636296
