19
Iteration:  4871charge 0 multiplicity 1
 C         0.296002         0.328554         0.389948
 C         1.267737        -0.112650        -0.701677
 O         1.666657        -1.561357        -0.378820
 C         2.643337        -0.459666        -0.667592
 C         2.810591        -0.282182        -2.120259
 C         3.023753        -1.579832        -2.855097
 O         1.780674        -2.144069        -3.316493
 C         0.682515        -1.304341        -3.052475
 C         1.158983        -0.040059        -2.233407
 H         0.618205        -0.291165         1.351693
 H         0.343560         1.277745         0.647123
 H        -0.785598         0.109140         0.149590
 H         3.525564        -0.460415         0.156743
 H         3.445371         0.482188        -2.459069
 H         3.674904        -1.365667        -3.828554
 H         3.491583        -2.424608        -2.266440
 H         0.157313        -0.920879        -3.973071
 H        -0.028320        -1.753270        -2.312776
 H         0.739136         0.903800        -2.690892
