19
Iteration:  3267charge 0 multiplicity 1
 C         0.230723         0.378009         0.340125
 C         1.236604        -0.222099        -0.599471
 O         2.044708        -1.320600        -0.277915
 C         2.710299        -0.245598        -0.846017
 C         2.579308        -0.195375        -2.323519
 C         3.050150        -1.390304        -3.158736
 O         1.885682        -2.315091        -3.125828
 C         0.561077        -1.634924        -2.812514
 C         0.951150        -0.320376        -2.082856
 H         0.577506         0.141307         1.328167
 H         0.391479         1.461120         0.288969
 H        -0.750877         0.145865        -0.030932
 H         3.571133         0.315568        -0.255693
 H         2.763755         0.860593        -2.737142
 H         3.242752        -1.183654        -4.204115
 H         3.970801        -1.946054        -2.803232
 H        -0.065301        -1.379329        -3.758893
 H         0.000580        -2.495091        -2.341076
 H         0.528078         0.680385        -2.451092
