19
Iteration:  4757
 C         0.316998         0.410865         0.401646
 C         1.179607        -0.235938        -0.635189
 O         1.753809        -1.588261        -0.314959
 C         2.611379        -0.508348        -0.622960
 C         2.754125        -0.328034        -2.108972
 C         3.001585        -1.522513        -3.012451
 O         1.768568        -2.194666        -3.213735
 C         0.726425        -1.204417        -3.201595
 C         1.154895        -0.046457        -2.184573
 H         0.883148         0.684114         1.198817
 H        -0.172417         1.318495        -0.088187
 H        -0.413712        -0.267174         0.655878
 H         3.323803        -0.415516         0.144486
 H         3.459447         0.613398        -2.181316
 H         3.663842        -1.167421        -3.862457
 H         3.591140        -2.333324        -2.547033
 H         0.556637        -0.891053        -4.233004
 H        -0.147364        -1.817351        -2.813395
 H         0.889218         0.880189        -2.672175
