19
Iteration:  2327charge 0 multiplicity 1
 C         0.464122         0.516012         0.444381
 C         1.059436        -0.264391        -0.685102
 O         2.025624        -1.358423        -0.315174
 C         2.570579        -0.202725        -0.882785
 C         2.406926        -0.130867        -2.434685
 C         2.894321        -1.262396        -3.287167
 O         2.084168        -2.380627        -2.897718
 C         0.796779        -1.848654        -2.698767
 C         0.887365        -0.347548        -2.254978
 H         0.491802         1.715177         0.203840
 H        -0.543936         0.323170         0.571821
 H         1.073006         0.388477         1.424761
 H         3.308287         0.295326        -0.447275
 H         2.583054         0.946733        -2.672238
 H         2.716378        -0.896163        -4.301210
 H         3.944650        -1.559551        -3.182488
 H         0.137489        -2.038624        -3.529699
 H         0.287064        -2.423392        -1.757838
 H         0.241682         0.416577        -2.537284
