19
Iteration:  1103charge 0 multiplicity 1
 C         0.175348         0.375394         0.326930
 C         1.248552        -0.105827        -0.630901
 O         2.277461        -1.119255        -0.164298
 C         2.734566         0.041275        -0.795516
 C         2.494978        -0.289208        -2.388307
 C         2.931796        -1.640533        -3.002885
 O         1.704048        -2.109636        -3.557826
 C         0.690260        -1.879447        -2.611877
 C         1.005302        -0.479220        -2.097273
 H        -0.614410         0.743721        -0.240208
 H        -0.287294        -0.624648         0.747879
 H         0.410518         1.085103         1.038777
 H         3.618490         0.693751        -0.388444
 H         2.863645         0.538473        -2.974605
 H         3.563523        -1.563625        -3.840989
 H         3.382584        -2.221212        -2.171798
 H        -0.260464        -2.030011        -3.171090
 H         0.792453        -2.662399        -1.775658
 H         0.408330         0.317956        -2.509264
