19
Iteration:  3946
 C         0.236724         0.330377         0.317011
 C         1.305650        -0.207396        -0.602744
 O         1.915098        -1.495776        -0.226061
 C         2.721048        -0.296757        -0.695938
 C         2.657875        -0.313958        -2.202566
 C         3.002031        -1.695363        -2.836582
 O         1.721986        -1.960048        -3.596521
 C         0.637560        -1.403166        -2.867761
 C         1.126805        -0.165404        -2.200629
 H        -0.479389        -0.447448         0.660752
 H         0.685731         0.730776         1.224667
 H        -0.427858         1.010047        -0.163593
 H         3.484127         0.051422        -0.096764
 H         3.186886         0.493215        -2.694280
 H         3.758021        -1.660074        -3.559997
 H         3.258361        -2.374832        -2.026692
 H        -0.141173        -1.173592        -3.615694
 H         0.317437        -2.194168        -2.142027
 H         0.853857         0.752123        -2.595323
