19
Iteration:  4414
 C         0.305741         0.290319         0.255668
 C         1.195179        -0.210579        -0.655015
 O         1.771707        -1.480859        -0.245508
 C         2.714885        -0.346753        -0.620213
 C         2.816043        -0.289305        -2.154388
 C         2.908452        -1.711008        -2.803176
 O         1.759487        -2.004336        -3.559574
 C         0.647433        -1.336310        -2.994790
 C         1.223726        -0.090691        -2.183743
 H         0.527192        -0.210138         1.298482
 H         0.389223         1.320153         0.429687
 H        -0.799383         0.015555         0.244519
 H         3.446904        -0.341200         0.167428
 H         3.396700         0.505340        -2.580674
 H         3.840725        -1.557103        -3.339949
 H         3.142244        -2.443691        -2.055561
 H         0.009943        -1.139038        -3.812065
 H         0.015455        -1.948789        -2.257128
 H         0.733019         0.769314        -2.589655
