19
Iteration:  3215charge 0 multiplicity 1
 C         0.390959         0.321053         0.481991
 C         1.189401        -0.251699        -0.702543
 O         1.952870        -1.323361        -0.355337
 C         2.597529        -0.158226        -0.829713
 C         2.553225        -0.218366        -2.368846
 C         2.989283        -1.374128        -3.169880
 O         1.894154        -2.279199        -2.865118
 C         0.678834        -1.592919        -2.879600
 C         0.997308        -0.336443        -2.279668
 H         0.452431        -0.579109         1.326454
 H         1.002457         1.136139         0.841746
 H        -0.584805         0.495996         0.170097
 H         3.374213         0.295523        -0.119963
 H         2.794985         0.744786        -2.847892
 H         3.095039        -1.277135        -4.315104
 H         3.869362        -1.812108        -2.798335
 H         0.295075        -1.462462        -3.903338
 H        -0.108231        -2.234402        -2.363872
 H         0.442412         0.529989        -2.703232
