19
Iteration:   278
 C         0.327896         0.273071         0.407744
 C         1.254146        -0.236638        -0.658068
 O         2.195211        -1.276007        -0.286759
 C         2.653475         0.020222        -0.875884
 C         2.531220        -0.097946        -2.386512
 C         2.933073        -1.442636        -3.014622
 O         1.784050        -2.399499        -3.135257
 C         0.619539        -1.715245        -2.787612
 C         0.965820        -0.333586        -2.228168
 H        -0.423040         0.696982        -0.271291
 H         0.029825        -0.429452         1.218828
 H         0.677255         1.164188         0.935851
 H         3.202710         0.882715        -0.180914
 H         2.905189         0.786015        -2.928475
 H         3.469842        -1.460284        -3.956694
 H         3.664869        -1.970186        -2.359127
 H         0.017845        -1.552887        -3.670601
 H         0.053895        -2.456011        -2.168779
 H         0.262637         0.404949        -2.577196
