19
Iteration:  3601charge 0 multiplicity 1
 C         0.190237         0.289211         0.339806
 C         1.256614        -0.196960        -0.583051
 O         1.977044        -1.331206        -0.237051
 C         2.778892        -0.204201        -0.720337
 C         2.761528        -0.234304        -2.272350
 C         2.994606        -1.577659        -3.023189
 O         1.708872        -2.180420        -3.428062
 C         0.545213        -1.550940        -2.798106
 C         1.173592        -0.221495        -2.160670
 H        -0.100816        -0.766089         0.880292
 H         0.290986         1.194319         1.061733
 H        -0.781456         0.539308        -0.221424
 H         3.507917         0.217757        -0.133639
 H         2.995958         0.675505        -2.807514
 H         3.568741        -1.413334        -3.973273
 H         3.588628        -2.387164        -2.390901
 H        -0.263652        -1.125349        -3.526169
 H        -0.024885        -2.174531        -2.095819
 H         0.784661         0.653609        -2.768347
