19
Iteration:   939charge 0 multiplicity 1
 C         0.306045         0.154297         0.382457
 C         1.240478        -0.206048        -0.670032
 O         2.291981        -1.088611        -0.230677
 C         2.653233         0.091763        -0.898987
 C         2.586814        -0.212744        -2.441443
 C         2.945606        -1.528889        -3.022270
 O         1.760030        -2.347337        -3.168078
 C         0.532163        -1.698035        -2.781440
 C         0.955591        -0.378932        -2.126645
 H        -0.453189         0.812384        -0.069582
 H        -0.235577        -0.800619         0.745223
 H         0.736646         0.673324         1.286468
 H         3.183894         0.824813        -0.305612
 H         2.934266         0.561022        -3.141626
 H         3.195996        -1.398808        -4.085195
 H         3.660555        -2.124983        -2.450525
 H        -0.008159        -1.594246        -3.654688
 H        -0.005075        -2.279259        -2.019081
 H         0.474259         0.519130        -2.451450
