19
Iteration:  4908charge 0 multiplicity 1
 C         0.234107         0.439590         0.418578
 C         1.113233        -0.232495        -0.594543
 O         1.821309        -1.608753        -0.274515
 C         2.613930        -0.408682        -0.595404
 C         2.838708        -0.329809        -2.141307
 C         3.041752        -1.615774        -2.929263
 O         1.716114        -2.157583        -3.432569
 C         0.718835        -1.190028        -3.115862
 C         1.195368        -0.136779        -2.220392
 H         0.854312         0.535512         1.252060
 H        -0.053914         1.534483         0.046379
 H        -0.642516        -0.129980         0.723014
 H         3.316147        -0.131498         0.103257
 H         3.492217         0.552242        -2.465655
 H         3.604782        -1.418176        -3.857457
 H         3.593040        -2.352203        -2.250582
 H         0.305464        -0.867031        -4.176083
 H        -0.081334        -1.784294        -2.718586
 H         0.876611         0.868312        -2.438281
