19
Iteration:  4018charge 0 multiplicity 1
 C         0.423091         0.573512         0.334004
 C         1.223049        -0.273819        -0.580834
 O         1.653587        -1.519225        -0.033044
 C         2.671448        -0.454920        -0.637970
 C         2.689112        -0.285588        -2.179772
 C         3.091618        -1.548691        -3.059932
 O         1.773906        -1.881570        -3.725591
 C         0.697669        -1.571191        -2.885412
 C         1.124520        -0.292198        -2.139992
 H         0.106862         0.066263         1.200329
 H         1.042804         1.437456         0.701620
 H        -0.594454         0.735362        -0.127733
 H         3.435078        -0.134960        -0.002146
 H         3.078334         0.666990        -2.466254
 H         3.917175        -1.407856        -3.847273
 H         3.317528        -2.463709        -2.389732
 H        -0.128610        -1.459876        -3.606640
 H         0.487615        -2.380565        -2.224737
 H         0.386367         0.461111        -2.538135
