19
Iteration:  4158charge 0 multiplicity 1
 C         0.257113         0.263849         0.331445
 C         1.197655        -0.303611        -0.657174
 O         1.931062        -1.467492        -0.165584
 C         2.741134        -0.336265        -0.665110
 C         2.744123        -0.316498        -2.141203
 C         2.874262        -1.707488        -2.775809
 O         1.730310        -2.001079        -3.533834
 C         0.668058        -1.206799        -3.143334
 C         1.178360        -0.183827        -2.200375
 H         0.738388         0.599245         1.287041
 H        -0.165988         1.202516        -0.146133
 H        -0.352527        -0.544639         0.719239
 H         3.548661        -0.053287        -0.137512
 H         3.244725         0.537834        -2.565176
 H         3.801817        -1.790310        -3.357797
 H         2.898790        -2.386010        -1.964188
 H         0.131251        -0.800256        -4.003037
 H        -0.199654        -1.776515        -2.509476
 H         0.786607         0.865624        -2.352336
