19
Iteration:  4275charge 0 multiplicity 1
 C         0.365549         0.473545         0.364199
 C         1.166087        -0.165998        -0.637963
 O         1.689425        -1.527647        -0.225370
 C         2.634668        -0.433258        -0.632095
 C         2.690296        -0.352546        -2.158532
 C         2.995846        -1.600010        -2.911894
 O         1.850108        -1.952119        -3.642851
 C         0.705236        -1.507277        -2.880529
 C         1.182470        -0.155547        -2.183808
 H         0.788901         0.200648         1.405446
 H         0.403370         1.562859         0.272749
 H        -0.606331         0.108340         0.447280
 H         3.401676        -0.205644         0.052985
 H         3.265352         0.515394        -2.606870
 H         3.767772        -1.355405        -3.669931
 H         3.425976        -2.455905        -2.221997
 H        -0.055517        -1.411343        -3.766355
 H         0.316333        -2.290655        -2.307247
 H         0.711818         0.773180        -2.469536
