19
Iteration:  2309
 C         0.457832         0.547278         0.489098
 C         1.181932        -0.199428        -0.585676
 O         1.922913        -1.334423        -0.213889
 C         2.649237        -0.138082        -0.923114
 C         2.397674        -0.123286        -2.449614
 C         2.936150        -1.268610        -3.332941
 O         2.078556        -2.371806        -2.955145
 C         0.713309        -1.899114        -2.771474
 C         0.861605        -0.445707        -2.201353
 H         0.293574         1.553180         0.278458
 H        -0.518346        -0.051143         0.705181
 H         1.110887         0.633531         1.320114
 H         3.455140         0.344360        -0.181905
 H         2.671861         0.814446        -2.900472
 H         3.009638        -0.988566        -4.455506
 H         3.961543        -1.537359        -3.025005
 H         0.168177        -1.785260        -3.811400
 H         0.247519        -2.702713        -2.313754
 H         0.150330         0.203995        -2.825829
