19
Iteration:  2210
 C         0.149433         0.079654         0.406707
 C         1.221766        -0.151099        -0.686842
 O         2.232116        -1.093513        -0.312383
 C         2.761509         0.065431        -0.974650
 C         2.525467        -0.185701        -2.450203
 C         2.961881        -1.530277        -2.988246
 O         1.780421        -2.376873        -3.104396
 C         0.626645        -1.658526        -2.671122
 C         1.019926        -0.315362        -2.187332
 H        -0.535203         0.910282         0.202978
 H        -0.463986        -0.852835         0.377573
 H         0.624992         0.227164         1.410675
 H         3.730575         0.543383        -0.478710
 H         2.765727         0.654834        -3.073627
 H         3.435505        -1.566742        -3.940950
 H         3.585383        -1.968396        -2.181030
 H         0.050307        -1.437648        -3.566138
 H         0.000614        -2.222467        -2.083325
 H         0.359840         0.466282        -2.606919
