19
Iteration:  2425charge 0 multiplicity 1
 C         0.227670         0.218830         0.399818
 C         1.197785        -0.215921        -0.645489
 O         2.330533        -1.157077        -0.162885
 C         2.665933         0.038855        -0.846879
 C         2.541743        -0.146346        -2.450757
 C         2.973604        -1.486619        -3.099887
 O         1.770217        -2.403248        -3.121263
 C         0.601058        -1.703736        -2.863757
 C         0.975395        -0.392565        -2.169072
 H        -0.615754         0.943423         0.103790
 H        -0.237107        -0.602646         0.730139
 H         0.768048         0.832969         1.198523
 H         3.243278         0.725509        -0.387893
 H         2.686219         0.806926        -3.038275
 H         3.234838        -1.318172        -4.156811
 H         3.827591        -1.983625        -2.593313
 H         0.043452        -1.361848        -3.669181
 H        -0.172847        -2.336366        -2.241008
 H         0.370058         0.375485        -2.509152
