19
Iteration:  2347
 C         0.365073         0.465177         0.339019
 C         1.225553        -0.221599        -0.636935
 O         2.000142        -1.397134        -0.414137
 C         2.641006        -0.136914        -0.863152
 C         2.467547        -0.069534        -2.446841
 C         2.877199        -1.260763        -3.287303
 O         2.058521        -2.345939        -2.899738
 C         0.706563        -1.852063        -2.570950
 C         0.900660        -0.406289        -2.186026
 H         0.475242         1.606920         0.181318
 H        -0.666192         0.290870         0.362845
 H         0.777335         0.181919         1.370229
 H         3.370621         0.294049        -0.124929
 H         2.740714         0.956688        -2.845123
 H         2.709198        -1.066484        -4.326582
 H         3.925760        -1.543731        -3.123251
 H         0.105803        -1.878810        -3.413173
 H         0.176752        -2.508911        -1.751644
 H         0.195714         0.201015        -2.705018
