19
Iteration:  4547
 C         0.340000         0.423685         0.306143
 C         1.223502        -0.238113        -0.605969
 O         1.647757        -1.606141        -0.355469
 C         2.633230        -0.603093        -0.645798
 C         2.773603        -0.344540        -2.156235
 C         3.077273        -1.432339        -3.102516
 O         1.786252        -2.136681        -3.025447
 C         0.621354        -1.270425        -3.122960
 C         1.230924        -0.045514        -2.193168
 H         0.822294         0.693389         1.336870
 H        -0.133665         1.360253        -0.145320
 H        -0.516754        -0.247388         0.462291
 H         3.390061        -0.550400         0.125426
 H         3.256894         0.666985        -2.322948
 H         3.307289        -1.048795        -4.161899
 H         3.922850        -2.044818        -2.775484
 H         0.391228        -1.022408        -4.147763
 H        -0.201651        -1.822959        -2.584738
 H         0.952449         0.883524        -2.666791
