19
Iteration:  3052charge 0 multiplicity 1
 C         0.284456         0.333330         0.476665
 C         1.244067        -0.200304        -0.609492
 O         2.101622        -1.207445        -0.291941
 C         2.618422         0.009940        -0.908081
 C         2.525627        -0.218059        -2.390903
 C         2.968721        -1.546758        -2.924077
 O         1.805521        -2.223249        -3.471124
 C         0.765981        -1.795774        -2.684661
 C         0.978146        -0.389553        -2.124832
 H        -0.655607         0.842076        -0.035928
 H        -0.164964        -0.438339         1.101775
 H         0.722584         1.137944         0.995371
 H         3.393197         0.655957        -0.255570
 H         2.805751         0.558522        -3.105894
 H         3.681252        -1.382030        -3.770274
 H         3.404806        -2.247821        -2.156227
 H        -0.216666        -1.614243        -3.376985
 H         0.407903        -2.477802        -1.879812
 H         0.432923         0.415782        -2.562451
