19
Iteration:  3107charge 0 multiplicity 1
 C         0.248108         0.254239         0.446476
 C         1.201186        -0.169885        -0.581956
 O         2.104708        -1.214012        -0.299090
 C         2.729914         0.003112        -0.908427
 C         2.550117        -0.181442        -2.420734
 C         3.068065        -1.534660        -2.999442
 O         1.806817        -2.330956        -3.282588
 C         0.622977        -1.688130        -2.752360
 C         0.981416        -0.341007        -2.136586
 H        -0.831489         0.042016         0.156587
 H         0.220986        -0.144257         1.451520
 H         0.359286         1.281266         0.613659
 H         3.537377         0.534688        -0.241124
 H         2.580601         0.697596        -3.046612
 H         3.529818        -1.529573        -4.001332
 H         3.668913        -2.155949        -2.412539
 H        -0.012929        -1.415237        -3.740387
 H         0.015112        -2.391368        -2.102254
 H         0.478978         0.564450        -2.366726
