19
Iteration:   931charge 0 multiplicity 1
 C         0.313431         0.163909         0.422908
 C         1.237484        -0.264014        -0.673298
 O         2.299096        -1.108181        -0.250542
 C         2.659725         0.136397        -0.931104
 C         2.543335        -0.173558        -2.415964
 C         3.010545        -1.537929        -2.983047
 O         1.718120        -2.424750        -3.137037
 C         0.524126        -1.652819        -2.840002
 C         0.962321        -0.355860        -2.159761
 H        -0.475281         0.656955        -0.020485
 H        -0.133109        -0.803732         0.898353
 H         0.711716         0.619720         1.247501
 H         3.279844         1.090464        -0.376607
 H         2.771079         0.652659        -3.064577
 H         3.364919        -1.399461        -4.023687
 H         3.820614        -2.128532        -2.399480
 H        -0.098601        -1.331260        -3.715083
 H        -0.114664        -2.262589        -2.085136
 H         0.539566         0.509348        -2.523193
