19
Iteration:  4938charge 0 multiplicity 1
 C         0.223448         0.392514         0.186886
 C         1.224035        -0.305326        -0.590494
 O         1.789647        -1.524050        -0.141535
 C         2.717811        -0.459092        -0.571573
 C         2.799521        -0.363581        -2.138906
 C         3.060759        -1.563487        -2.965059
 O         1.676314        -2.131063        -3.410756
 C         0.661561        -1.124993        -3.154405
 C         1.175001        -0.222486        -2.104140
 H         0.853398         0.870527         1.044326
 H        -0.270036         1.074001        -0.378322
 H        -0.525945        -0.341034         0.638183
 H         3.637010        -0.128616         0.140477
 H         3.204107         0.591696        -2.279506
 H         3.561364        -1.256556        -3.949034
 H         3.559133        -2.359591        -2.352346
 H         0.437736        -0.528378        -4.050334
 H        -0.227198        -1.688497        -2.788965
 H         0.904038         0.863532        -2.362930
