19
Iteration:  1491
 C         0.354857         0.528499         0.424801
 C         1.182849        -0.262748        -0.639339
 O         2.039040        -1.355835        -0.314192
 C         2.661646        -0.158190        -0.879288
 C         2.418744        -0.115413        -2.392451
 C         2.965676        -1.306234        -3.226493
 O         1.982196        -2.396115        -3.018586
 C         0.677184        -1.786610        -2.727511
 C         0.925981        -0.405270        -2.161100
 H         0.019215         1.411072        -0.104986
 H        -0.534969         0.022403         0.820880
 H         0.943693         0.746666         1.381933
 H         3.479753         0.287861        -0.159783
 H         2.791352         0.835366        -3.006256
 H         2.993065        -1.002695        -4.297217
 H         3.963586        -1.648388        -2.818956
 H         0.316404        -1.759128        -3.740357
 H         0.032973        -2.408031        -2.162443
 H         0.360178         0.475070        -2.593518
