19
Iteration:  4762charge 0 multiplicity 1
 C         0.283307         0.436339         0.361009
 C         1.154352        -0.241053        -0.627120
 O         1.762236        -1.583577        -0.306047
 C         2.647322        -0.479824        -0.587338
 C         2.720807        -0.326255        -2.077235
 C         2.979992        -1.546214        -3.044311
 O         1.772625        -2.173506        -3.224163
 C         0.745291        -1.238473        -3.186961
 C         1.210026        -0.062129        -2.184710
 H         1.052655         0.590636         1.287604
 H        -0.130880         1.320021        -0.012335
 H        -0.569738        -0.327896         0.680788
 H         3.403230        -0.452917         0.300011
 H         3.316955         0.484451        -2.229073
 H         3.397833        -1.216554        -4.000837
 H         3.735697        -2.314677        -2.788490
 H         0.569781        -0.758153        -4.262430
 H        -0.174773        -1.738728        -2.870714
 H         0.881512         0.879253        -2.686518
