19
Iteration:  1708
 C         0.227507         0.414788         0.380612
 C         1.251268        -0.193934        -0.562230
 O         2.250686        -1.120188        -0.035220
 C         2.713711        -0.031197        -0.801390
 C         2.472361        -0.262800        -2.383305
 C         2.955583        -1.537325        -3.110221
 O         1.795182        -2.167151        -3.516149
 C         0.640433        -1.893230        -2.759843
 C         0.948086        -0.469230        -2.146987
 H        -0.237999         1.232444         0.011223
 H        -0.516960        -0.411904         0.616043
 H         0.759243         0.647238         1.370404
 H         3.334739         0.874585        -0.441279
 H         2.619088         0.551434        -3.011558
 H         3.643426        -1.535364        -4.008711
 H         3.576449        -2.173645        -2.484475
 H        -0.251852        -1.917326        -3.499250
 H         0.428752        -2.548577        -1.855292
 H         0.357090         0.430710        -2.505950
