19
Iteration:  4883charge 0 multiplicity 1
 C         0.329769         0.345147         0.424079
 C         1.184893        -0.177698        -0.602542
 O         1.660965        -1.484768        -0.402024
 C         2.675220        -0.439669        -0.606468
 C         2.748827        -0.345266        -2.179411
 C         3.012228        -1.635456        -2.888442
 O         1.801111        -2.122667        -3.349014
 C         0.699259        -1.247202        -3.053105
 C         1.178018        -0.085888        -2.235790
 H         0.698048        -0.083020         1.454988
 H         0.285090         1.343162         0.442944
 H        -0.696646        -0.119261         0.233803
 H         3.478358        -0.210468         0.281018
 H         3.347653         0.427940        -2.531677
 H         3.694098        -1.439761        -3.844322
 H         3.623385        -2.284186        -2.175938
 H         0.307579        -1.007606        -4.106191
 H        -0.064564        -1.963459        -2.687383
 H         0.926496         0.956961        -2.586605
