19
Iteration:  4480
 C         0.303369         0.352095         0.280690
 C         1.223196        -0.204971        -0.669745
 O         1.729084        -1.520755        -0.153419
 C         2.660289        -0.458191        -0.597710
 C         2.771729        -0.326857        -2.129010
 C         3.051288        -1.529387        -2.984584
 O         1.725552        -2.194477        -3.403923
 C         0.619557        -1.227802        -3.059715
 C         1.227050        -0.097295        -2.176300
 H         0.705382         0.173763         1.382095
 H         0.104789         1.379519         0.038964
 H        -0.664060        -0.238897         0.088610
 H         3.439321        -0.356193         0.045424
 H         3.334551         0.560806        -2.388340
 H         3.512833        -1.280282        -3.973642
 H         3.683110        -2.343485        -2.576562
 H         0.290633        -0.769892        -3.912011
 H        -0.140809        -1.852373        -2.590744
 H         1.115060         0.942820        -2.387733
