19
Iteration:  2720
 C         0.196727         0.191932         0.423726
 C         1.227178        -0.128303        -0.688452
 O         2.162555        -1.208044        -0.356141
 C         2.664784        -0.037930        -0.846019
 C         2.518890        -0.131427        -2.480442
 C         2.966308        -1.451453        -3.173923
 O         1.851376        -2.443281        -2.940858
 C         0.686775        -1.695871        -2.723426
 C         0.977532        -0.280467        -2.183264
 H        -0.025554         1.301856         0.308634
 H        -0.765028        -0.303876         0.414184
 H         0.710978        -0.193375         1.416418
 H         3.511166         0.487077        -0.206813
 H         3.007621         0.813732        -2.938564
 H         2.963088        -1.150511        -4.229168
 H         3.973583        -1.931305        -2.884535
 H         0.072629        -1.576455        -3.660822
 H         0.107098        -2.234179        -2.043495
 H         0.314888         0.478294        -2.585358
