19
Iteration:  4940
 C         0.212652         0.405953         0.196539
 C         1.229879        -0.325570        -0.584836
 O         1.790733        -1.517973        -0.139565
 C         2.719668        -0.458731        -0.560799
 C         2.809135        -0.368040        -2.170475
 C         3.053108        -1.558580        -2.963710
 O         1.679518        -2.131432        -3.408889
 C         0.657741        -1.138104        -3.147216
 C         1.186343        -0.214324        -2.087985
 H         0.770485         0.813058         1.006774
 H        -0.421482         1.138532        -0.396931
 H        -0.476269        -0.349092         0.600353
 H         3.563699        -0.185040         0.045687
 H         3.289199         0.624299        -2.270491
 H         3.552594        -1.252154        -3.956905
 H         3.599641        -2.412235        -2.374413
 H         0.447059        -0.412529        -4.077118
 H        -0.227242        -1.639468        -2.797204
 H         0.891693         0.811537        -2.408013
