19
Iteration:  2192
 C         0.303397         0.052216         0.391605
 C         1.247457        -0.174815        -0.713898
 O         2.253678        -1.137292        -0.337594
 C         2.604690         0.152720        -0.894699
 C         2.531750        -0.152411        -2.480998
 C         2.979002        -1.598293        -2.867361
 O         1.805211        -2.380271        -3.072962
 C         0.546000        -1.645417        -2.790330
 C         0.966282        -0.265925        -2.225587
 H        -0.092116         1.024377         0.419272
 H        -0.509077        -0.824729         0.293239
 H         0.795836        -0.021542         1.317365
 H         3.275661         0.928648        -0.309920
 H         2.876752         0.619956        -3.199524
 H         3.514138        -1.535386        -3.849227
 H         3.611141        -2.256019        -2.258001
 H        -0.215011        -1.645721        -3.601232
 H         0.156659        -2.242037        -1.877305
 H         0.453213         0.693035        -2.620440
