19
Iteration:  1137charge 0 multiplicity 1
 C         0.211736         0.174383         0.403699
 C         1.227981        -0.129431        -0.690413
 O         2.196665        -1.113310        -0.248334
 C         2.667128         0.035008        -0.896754
 C         2.567611        -0.225525        -2.482549
 C         2.935326        -1.642213        -2.933739
 O         1.718591        -2.228609        -3.327696
 C         0.679903        -1.746655        -2.632612
 C         1.072849        -0.271916        -2.229393
 H        -0.609205         0.709456         0.109503
 H        -0.153423        -0.917462         0.809088
 H         0.679952         0.536128         1.250971
 H         3.527600         0.677107        -0.330263
 H         2.844784         0.682962        -3.007188
 H         3.591507        -1.695605        -3.765235
 H         3.433787        -2.173284        -2.103066
 H        -0.166420        -1.894541        -3.284631
 H         0.438020        -2.312266        -1.613541
 H         0.368484         0.418508        -2.548834
