19
Iteration:  4009charge 0 multiplicity 1
 C         0.374408         0.542680         0.443821
 C         1.171930        -0.241245        -0.594937
 O         1.691405        -1.469303        -0.117509
 C         2.682310        -0.449955        -0.648080
 C         2.682930        -0.339841        -2.191819
 C         3.086106        -1.580175        -3.023025
 O         1.822504        -1.912865        -3.730071
 C         0.722386        -1.583239        -2.887739
 C         1.041720        -0.274341        -2.150252
 H         0.218886         0.012024         1.258685
 H         1.085143         1.354418         0.674061
 H        -0.508696         1.137245         0.036443
 H         3.409770        -0.093985        -0.015271
 H         3.290294         0.512415        -2.327636
 H         3.759638        -1.357402        -3.847434
 H         3.401183        -2.462198        -2.525075
 H        -0.069425        -1.239313        -3.574132
 H         0.450763        -2.346954        -2.157675
 H         0.530712         0.580770        -2.577122
