19
Iteration:  2844
 C         0.224005         0.171409         0.344405
 C         1.188021        -0.239177        -0.629488
 O         2.237861        -1.126784        -0.250246
 C         2.723814         0.035365        -0.869228
 C         2.608634        -0.159034        -2.411898
 C         2.967587        -1.513848        -3.077564
 O         1.756042        -2.351571        -3.137594
 C         0.566817        -1.694613        -2.751121
 C         1.038202        -0.356913        -2.155831
 H        -0.777377         0.558847        -0.103593
 H        -0.222296        -0.662424         0.884595
 H         0.781463         0.780671         0.939945
 H         3.331634         0.706867        -0.382361
 H         2.807031         0.701116        -3.022576
 H         3.254195        -1.172750        -4.071827
 H         3.756316        -2.116045        -2.620606
 H        -0.105304        -1.444224        -3.686557
 H        -0.025328        -2.207462        -1.990571
 H         0.448012         0.461801        -2.356754
