19
Iteration:  3951
 C         0.278085         0.332358         0.340253
 C         1.274704        -0.219100        -0.629470
 O         1.876101        -1.476023        -0.229593
 C         2.709441        -0.323850        -0.711286
 C         2.611508        -0.309551        -2.209377
 C         3.018993        -1.694689        -2.845394
 O         1.737504        -1.938556        -3.578260
 C         0.667722        -1.408466        -2.876223
 C         1.141364        -0.200957        -2.200925
 H        -0.451316        -0.466871         0.742483
 H         0.771162         0.821003         1.204253
 H        -0.471781         0.986932        -0.201678
 H         3.623088         0.035369        -0.111042
 H         3.137340         0.554391        -2.679071
 H         3.879635        -1.663749        -3.609477
 H         3.244945        -2.411693        -1.960483
 H        -0.213279        -1.281586        -3.521056
 H         0.279934        -2.078166        -2.094475
 H         0.900680         0.902109        -2.497287
