19
Iteration:   115charge 0 multiplicity 1
 C         0.242771         0.375669         0.334617
 C         1.217828        -0.251771        -0.595975
 O         2.243115        -1.163526        -0.133667
 C         2.626579         0.059798        -0.905045
 C         2.515046        -0.216223        -2.376804
 C         2.946390        -1.526599        -3.126814
 O         1.815384        -2.346084        -3.253037
 C         0.677399        -1.744284        -2.786218
 C         0.973659        -0.426721        -2.124640
 H         0.359342         1.461727         0.444861
 H        -0.797782        -0.055076         0.183155
 H         0.446219        -0.023453         1.365115
 H         3.252237         0.809279        -0.358924
 H         2.592772         0.709582        -2.980688
 H         3.430030        -1.256420        -4.117217
 H         3.772494        -2.185552        -2.638988
 H        -0.176305        -1.716666        -3.563055
 H         0.324496        -2.392653        -1.954288
 H         0.418536         0.433826        -2.448986
