19
Iteration:  3943
 C         0.207554         0.318178         0.308622
 C         1.291643        -0.201655        -0.582012
 O         1.948336        -1.497941        -0.229254
 C         2.731996        -0.284414        -0.684232
 C         2.716602        -0.325830        -2.207825
 C         2.964477        -1.682859        -2.829232
 O         1.726900        -1.981842        -3.610491
 C         0.604430        -1.409652        -2.862974
 C         1.127795        -0.145957        -2.177941
 H        -0.401736        -0.439717         0.562310
 H         0.604334         0.705060         1.253400
 H        -0.401768         1.155969        -0.186757
 H         3.471930         0.093874         0.030621
 H         3.239839         0.472843        -2.705142
 H         3.742456        -1.659021        -3.607703
 H         3.213255        -2.399996        -2.133224
 H        -0.098397        -1.122670        -3.683351
 H         0.314106        -2.224990        -2.186548
 H         0.721119         0.754303        -2.718995
