19
Iteration:  2157
 C         0.323626         0.202298         0.457431
 C         1.211901        -0.246853        -0.661976
 O         2.289541        -1.172433        -0.306452
 C         2.647685         0.114709        -0.956362
 C         2.433545        -0.162611        -2.485943
 C         2.977486        -1.558694        -2.892799
 O         1.847946        -2.399122        -3.058216
 C         0.590635        -1.623826        -2.911435
 C         0.925409        -0.338401        -2.164864
 H        -0.042053         1.143241         0.348870
 H        -0.718880        -0.377553         0.263713
 H         0.679299        -0.136833         1.410982
 H         3.458885         0.792003        -0.343917
 H         2.627504         0.564409        -3.254600
 H         3.495882        -1.481541        -3.818379
 H         3.586468        -1.942243        -2.064671
 H         0.051779        -1.421944        -3.855777
 H        -0.007148        -2.383027        -2.335927
 H         0.301599         0.620120        -2.351210
