19
Iteration:  1946charge 0 multiplicity 1
 C         0.244197         0.187662         0.351806
 C         1.250317        -0.282791        -0.660343
 O         2.257399        -1.221237        -0.246345
 C         2.649013         0.124742        -0.926806
 C         2.583178        -0.127993        -2.398302
 C         2.918688        -1.495693        -3.103976
 O         1.817474        -2.396480        -2.960388
 C         0.587973        -1.658414        -2.808228
 C         0.957360        -0.337037        -2.219709
 H         0.051468         1.189604         0.324332
 H        -0.729992        -0.206217         0.234513
 H         0.624841        -0.060690         1.413191
 H         3.178812         0.880486        -0.240376
 H         2.925802         0.668175        -3.117630
 H         3.139911        -1.264207        -4.218197
 H         3.828836        -2.080214        -2.746424
 H         0.191332        -1.600288        -3.867653
 H        -0.024159        -2.210984        -2.143623
 H         0.281869         0.509475        -2.363246
