19
Iteration:  2363
 C         0.301780         0.422768         0.359488
 C         1.245952        -0.190269        -0.655100
 O         2.044944        -1.324114        -0.316114
 C         2.719660        -0.158024        -0.932544
 C         2.402176        -0.138710        -2.394322
 C         2.911931        -1.286484        -3.301526
 O         1.984066        -2.365996        -2.934535
 C         0.742381        -1.827657        -2.633967
 C         0.933396        -0.311198        -2.119196
 H         0.147686         1.506535         0.117102
 H        -0.743270        -0.133099         0.117464
 H         0.377862         0.176225         1.405983
 H         3.629162         0.198646        -0.417583
 H         2.523036         0.786472        -2.933060
 H         2.847398        -1.096133        -4.431514
 H         3.895598        -1.723136        -3.074274
 H        -0.002005        -1.950613        -3.565482
 H         0.512545        -2.456059        -1.755308
 H         0.215706         0.474394        -2.544638
