19
Iteration:  2449charge 0 multiplicity 1
 C         0.310162         0.167743         0.465563
 C         1.255263        -0.281289        -0.593565
 O         2.271217        -1.164826        -0.283688
 C         2.686146         0.079611        -0.993772
 C         2.438627        -0.176045        -2.451837
 C         2.953113        -1.526295        -2.892498
 O         1.855336        -2.388619        -3.075241
 C         0.575092        -1.619698        -2.945657
 C         0.897969        -0.343192        -2.175023
 H        -0.527774         0.752444        -0.081111
 H        -0.164521        -0.691072         0.916288
 H         0.649105         0.971691         1.099674
 H         3.522502         0.714586        -0.533894
 H         2.656002         0.648341        -3.168403
 H         3.463794        -1.364287        -3.836151
 H         3.716058        -1.889232        -2.175452
 H         0.164293        -1.289965        -3.836329
 H        -0.203658        -2.286571        -2.373639
 H         0.258614         0.545477        -2.450449
