19
Iteration:  1389charge 0 multiplicity 1
 C         0.237885         0.275900         0.352814
 C         1.286279        -0.151198        -0.599206
 O         2.300939        -1.080654        -0.161092
 C         2.712391         0.115131        -0.874216
 C         2.532199        -0.287246        -2.366388
 C         2.861761        -1.674265        -2.813845
 O         1.771774        -2.075801        -3.674521
 C         0.637636        -1.905596        -2.678761
 C         0.932789        -0.425045        -2.120430
 H        -0.207985         1.230637         0.036909
 H        -0.642936        -0.499245         0.245679
 H         0.555529         0.445292         1.431091
 H         3.245847         0.833497        -0.329856
 H         2.925033         0.410083        -3.100966
 H         3.788440        -1.813843        -3.398157
 H         2.965244        -2.251787        -1.850194
 H        -0.327668        -1.943088        -3.131896
 H         0.796796        -2.740095        -2.070465
 H         0.282991         0.346615        -2.505298
