19
Iteration:  1532charge 0 multiplicity 1
 C         0.390642         0.417863         0.423937
 C         1.179289        -0.226399        -0.639959
 O         1.937870        -1.278914        -0.263347
 C         2.670784        -0.229813        -0.893967
 C         2.457982        -0.108929        -2.517237
 C         2.929789        -1.273928        -3.333122
 O         2.034180        -2.414637        -2.828840
 C         0.705563        -1.765696        -2.781849
 C         0.991624        -0.348620        -2.180135
 H         0.380632         1.458501         0.307798
 H        -0.708993         0.033006         0.481864
 H         0.878951         0.060368         1.445299
 H         3.335008         0.348641        -0.239363
 H         2.645877         0.837458        -2.793433
 H         2.488899        -1.130774        -4.315586
 H         3.975838        -1.566428        -3.171705
 H         0.113086        -1.641277        -3.760893
 H         0.167538        -2.377794        -2.085478
 H         0.215995         0.363679        -2.543711
