19
Iteration:  3207charge 0 multiplicity 1
 C         0.394076         0.287936         0.421066
 C         1.183887        -0.211678        -0.648726
 O         1.953152        -1.382458        -0.323571
 C         2.652024        -0.126136        -0.848422
 C         2.550809        -0.123937        -2.417561
 C         2.965838        -1.413014        -3.138553
 O         1.891713        -2.316806        -2.877212
 C         0.689518        -1.649549        -2.915370
 C         0.992890        -0.248750        -2.205606
 H         0.248011        -0.532340         1.166751
 H         0.901138         1.175071         0.864951
 H        -0.713048         0.566462         0.283516
 H         3.341512         0.255315        -0.206284
 H         2.810060         0.744042        -2.956165
 H         2.894536        -1.237681        -4.266273
 H         3.876100        -1.950346        -2.860126
 H         0.343484        -1.368388        -3.889630
 H         0.047406        -2.353815        -2.427549
 H         0.530730         0.577238        -2.676343
