19
Iteration:  2470charge 0 multiplicity 1
 C         0.350795         0.136228         0.477588
 C         1.180292        -0.197430        -0.709523
 O         2.330455        -1.194317        -0.420090
 C         2.605768         0.127803        -0.875648
 C         2.479844        -0.114268        -2.417408
 C         2.955867        -1.520526        -2.909619
 O         1.792193        -2.431606        -3.000127
 C         0.581718        -1.634041        -2.950593
 C         0.959920        -0.363914        -2.187207
 H        -0.628818         0.741922         0.278417
 H        -0.030231        -0.712090         0.866766
 H         0.919377         0.816438         1.175878
 H         3.237900         0.814806        -0.236491
 H         2.791920         0.732528        -3.088887
 H         3.645105        -1.593638        -3.753554
 H         3.435561        -1.956392        -1.993332
 H         0.230550        -1.354779        -3.958358
 H        -0.300123        -2.261423        -2.452769
 H         0.320957         0.449467        -2.475641
