19
Iteration:  2822
 C         0.242067         0.116872         0.419180
 C         1.292405        -0.039568        -0.586235
 O         2.299345        -1.158873        -0.123377
 C         2.730177         0.051283        -0.893707
 C         2.487986        -0.252617        -2.439884
 C         2.915908        -1.530913        -3.086667
 O         1.781498        -2.407887        -3.085155
 C         0.612748        -1.642321        -2.937280
 C         0.933418        -0.318656        -2.224916
 H        -0.710879         0.492781        -0.177175
 H        -0.118875        -0.874160         0.681898
 H         0.482904         0.712506         1.211518
 H         3.410898         0.659221        -0.456148
 H         2.698228         0.649683        -2.963926
 H         3.308390        -1.315850        -4.062210
 H         3.675089        -1.904389        -2.425316
 H         0.113311        -1.389072        -3.939058
 H        -0.089163        -2.146760        -2.296916
 H         0.318274         0.446861        -2.460477
