19
Iteration:  4694
 C         0.182188         0.297694         0.310884
 C         1.223933        -0.182669        -0.645447
 O         1.762047        -1.519595        -0.330271
 C         2.700805        -0.402898        -0.550013
 C         2.829137        -0.317056        -2.134564
 C         3.010536        -1.600258        -2.996667
 O         1.710839        -2.129066        -3.310165
 C         0.653968        -1.223488        -3.014447
 C         1.280482        -0.125993        -2.246110
 H         0.680717         0.295082         1.293430
 H        -0.232096         1.356454         0.178811
 H        -0.693147        -0.381224         0.443411
 H         3.436792        -0.368912         0.153047
 H         3.264560         0.553702        -2.572164
 H         3.697474        -1.472860        -3.864367
 H         3.449810        -2.401113        -2.403383
 H         0.129860        -0.807402        -3.934996
 H        -0.117938        -1.773858        -2.393186
 H         1.182301         0.901114        -2.570660
