19
Iteration:  2265charge 0 multiplicity 1
 C         0.262075         0.440023         0.370235
 C         1.220832        -0.285403        -0.622413
 O         2.178644        -1.259546        -0.159552
 C         2.628502        -0.039110        -0.857913
 C         2.549236        -0.151923        -2.396520
 C         2.942485        -1.345292        -3.247357
 O         1.899662        -2.363191        -3.107250
 C         0.596909        -1.854644        -2.765987
 C         0.987043        -0.405748        -2.161795
 H        -0.335163         1.142784        -0.164308
 H        -0.374627        -0.295963         0.945175
 H         0.814769         1.083258         1.053199
 H         3.328907         0.702540        -0.214109
 H         2.740363         0.778033        -2.901796
 H         3.006266        -1.208861        -4.331023
 H         3.880074        -1.865822        -3.004689
 H        -0.053737        -1.831604        -3.683128
 H         0.139203        -2.425761        -2.012893
 H         0.311580         0.452678        -2.456706
