19
Iteration:  1478charge 0 multiplicity 1
 C         0.345649         0.459362         0.338425
 C         1.230686        -0.246074        -0.564717
 O         2.033873        -1.369385        -0.270358
 C         2.655422        -0.063211        -0.901423
 C         2.471832        -0.170135        -2.415858
 C         2.925922        -1.372782        -3.148542
 O         1.954823        -2.324544        -3.093880
 C         0.699059        -1.771545        -2.742546
 C         0.925744        -0.368762        -2.138449
 H        -0.037517         1.287432        -0.103099
 H        -0.536812        -0.209675         0.681045
 H         0.980079         0.965380         1.178318
 H         3.560047         0.263200        -0.420391
 H         2.540717         0.822367        -2.801497
 H         3.296134        -1.193316        -4.166120
 H         3.843888        -1.810648        -2.727230
 H        -0.061230        -1.575956        -3.481785
 H         0.348489        -2.468708        -2.082120
 H         0.145138         0.283010        -2.595311
