19
Iteration:  4011charge 0 multiplicity 1
 C         0.387377         0.553802         0.411848
 C         1.183172        -0.246627        -0.597039
 O         1.674316        -1.482663        -0.090588
 C         2.687420        -0.452846        -0.651789
 C         2.681999        -0.322509        -2.190043
 C         3.105772        -1.577450        -3.029850
 O         1.801715        -1.904518        -3.727050
 C         0.717959        -1.582114        -2.891099
 C         1.057599        -0.274106        -2.148479
 H         0.147076        -0.000252         1.332490
 H         1.111068         1.316798         0.655933
 H        -0.532819         1.007778         0.008018
 H         3.469045        -0.063966        -0.002754
 H         3.276950         0.600752        -2.337341
 H         3.766992        -1.385962        -3.811155
 H         3.339720        -2.450834        -2.551339
 H        -0.042711        -1.233558        -3.620482
 H         0.478119        -2.379960        -2.116175
 H         0.446969         0.476664        -2.558342
