19
Iteration:  4690charge 0 multiplicity 1
 C         0.176386         0.288085         0.311078
 C         1.221831        -0.194670        -0.648996
 O         1.756304        -1.503567        -0.302819
 C         2.677914        -0.396328        -0.571058
 C         2.841492        -0.347611        -2.128885
 C         2.998573        -1.586276        -3.009662
 O         1.714908        -2.119357        -3.316379
 C         0.670209        -1.224577        -3.010851
 C         1.276796        -0.120821        -2.217449
 H         0.655673         0.245495         1.258045
 H        -0.154301         1.315317         0.081237
 H        -0.676722        -0.351317         0.278956
 H         3.595945        -0.338493         0.123235
 H         3.361312         0.576952        -2.631929
 H         3.629191        -1.643752        -3.909850
 H         3.519190        -2.378910        -2.443252
 H         0.140395        -0.763619        -3.910559
 H        -0.087904        -1.775132        -2.363480
 H         1.054797         0.933964        -2.496029
