19
Iteration:  1893charge 0 multiplicity 1
 C         0.306732         0.037273         0.362255
 C         1.205082        -0.242107        -0.726128
 O         2.180176        -1.200502        -0.409982
 C         2.688153         0.031326        -0.919419
 C         2.513700        -0.099845        -2.460440
 C         2.919965        -1.474606        -3.003329
 O         1.787058        -2.382853        -2.804595
 C         0.614151        -1.586834        -2.768619
 C         1.038408        -0.223334        -2.297491
 H        -0.488703         0.646515         0.059734
 H        -0.196982        -0.919834         0.829220
 H         0.804345         0.528615         1.314316
 H         3.531891         0.421001        -0.318069
 H         2.868551         0.680031        -3.062379
 H         3.220555        -1.621454        -4.011138
 H         3.775336        -1.829470        -2.435393
 H         0.186516        -1.580464        -3.756384
 H        -0.090035        -2.072716        -2.113511
 H         0.428288         0.653322        -2.539639
