19
Iteration:   536
 C         0.216620         0.132875         0.407016
 C         1.272347        -0.096996        -0.653134
 O         2.243718        -1.155760        -0.237138
 C         2.723126         0.029619        -0.911000
 C         2.539528        -0.160652        -2.483823
 C         2.910026        -1.494188        -3.097667
 O         1.763475        -2.407460        -3.011262
 C         0.628830        -1.675032        -2.807129
 C         0.986522        -0.352526        -2.192131
 H        -0.550886         0.708802        -0.069512
 H        -0.106355        -0.796078         0.939444
 H         0.503735         0.691120         1.346760
 H         3.530445         0.752625        -0.575137
 H         2.621699         0.830980        -2.984478
 H         3.440786        -1.490372        -4.047295
 H         3.592118        -2.040703        -2.392859
 H        -0.027967        -1.509903        -3.753053
 H         0.029157        -2.395563        -2.234171
 H         0.482260         0.535397        -2.623366
