19
Iteration:   555charge 0 multiplicity 1
 C         0.266674         0.152795         0.439950
 C         1.230362        -0.248993        -0.691451
 O         2.336970        -1.118259        -0.298262
 C         2.644915         0.173152        -0.925391
 C         2.510728        -0.208753        -2.438518
 C         2.912668        -1.562216        -2.978434
 O         1.802156        -2.474436        -2.946404
 C         0.575035        -1.575693        -2.918725
 C         0.939285        -0.309793        -2.224740
 H        -0.432612         0.881536         0.140083
 H        -0.344723        -0.810565         0.935336
 H         0.829743         0.293113         1.385288
 H         3.418637         0.693416        -0.286652
 H         3.016300         0.668265        -3.014637
 H         3.129521        -1.427529        -4.062181
 H         3.858506        -1.982139        -2.633361
 H         0.197120        -1.412196        -3.950017
 H        -0.213379        -2.228331        -2.473313
 H         0.313083         0.632942        -2.500179
