19
Iteration:  1234
 C         0.299563         0.348430         0.377871
 C         1.244457        -0.223482        -0.620579
 O         2.143057        -1.250316        -0.199852
 C         2.643711        -0.065031        -0.880976
 C         2.505688        -0.127524        -2.387113
 C         2.935896        -1.349158        -3.338091
 O         1.879063        -2.503460        -2.868024
 C         0.651443        -1.685284        -2.851594
 C         0.964433        -0.360285        -2.163740
 H         0.203249         1.404245         0.294121
 H        -0.721879        -0.115988         0.248668
 H         0.566005        -0.022323         1.264025
 H         3.530913         0.513677        -0.280305
 H         2.836108         0.751442        -2.906820
 H         2.716715        -1.031758        -4.345602
 H         3.973269        -1.786104        -3.253007
 H         0.444599        -1.495141        -3.932982
 H        -0.182611        -2.216791        -2.385622
 H         0.290720         0.467981        -2.456046
