19
Iteration:   240charge 0 multiplicity 1
 C         0.188179         0.340195         0.480588
 C         1.257696        -0.195985        -0.528362
 O         2.209974        -1.174380        -0.058737
 C         2.720214        -0.091763        -0.897887
 C         2.583574        -0.281266        -2.454342
 C         2.930455        -1.428666        -3.312798
 O         1.846694        -2.378981        -3.026371
 C         0.663651        -1.692504        -2.929473
 C         0.903936        -0.374728        -2.176328
 H        -0.762571         0.458194        -0.122226
 H        -0.152238        -0.409997         1.261766
 H         0.427611         1.356174         0.924618
 H         3.376641         0.585101        -0.485826
 H         2.871374         0.682603        -2.876031
 H         2.938066        -1.108007        -4.434843
 H         3.817888        -1.986376        -2.976429
 H         0.265674        -1.405453        -4.003062
 H        -0.191157        -2.291961        -2.590716
 H         0.487442         0.534274        -2.720876
