19
Iteration:   301charge 0 multiplicity 1
 C         0.258431         0.268444         0.419945
 C         1.178116        -0.208081        -0.698097
 O         2.209803        -1.251894        -0.416698
 C         2.658587         0.001910        -0.945696
 C         2.470870        -0.218596        -2.461282
 C         3.015058        -1.491986        -2.864474
 O         1.832183        -2.281143        -3.160186
 C         0.645746        -1.672901        -2.673669
 C         0.913700        -0.308119        -2.190098
 H        -0.471878         0.976311         0.156293
 H        -0.055381        -0.660423         1.056650
 H         0.878695         0.691583         1.151042
 H         3.619136         0.312205        -0.370855
 H         2.603188         0.581261        -3.184200
 H         3.638126        -1.503933        -3.723951
 H         3.698317        -2.015380        -2.097928
 H        -0.011914        -1.642753        -3.505859
 H         0.160529        -2.391312        -1.930720
 H         0.530337         0.607739        -2.596737
