19
Iteration:  4954
 C         0.122311         0.405455         0.282950
 C         1.210535        -0.258493        -0.571245
 O         1.833059        -1.553953        -0.134060
 C         2.718108        -0.475750        -0.591742
 C         2.786938        -0.341684        -2.134692
 C         2.974989        -1.624162        -3.084239
 O         1.719236        -2.117729        -3.368758
 C         0.704060        -1.161741        -3.103907
 C         1.289872        -0.135948        -2.141660
 H         0.342600         0.960507         1.145161
 H        -0.511852         1.183143        -0.378772
 H        -0.573067        -0.350271         0.581850
 H         3.343317        -0.219624         0.173851
 H         3.493303         0.381678        -2.653304
 H         3.549344        -1.354925        -3.987429
 H         3.544460        -2.456785        -2.583392
 H         0.516936        -0.602033        -4.160474
 H        -0.228244        -1.697710        -2.928969
 H         0.945668         0.871122        -2.250728
