19
Iteration:  1458
 C         0.261354         0.394144         0.350841
 C         1.198282        -0.219757        -0.658859
 O         2.152769        -1.246386        -0.218443
 C         2.732018        -0.125086        -0.826602
 C         2.515405        -0.185643        -2.413129
 C         2.991655        -1.398061        -3.104146
 O         1.866807        -2.335986        -3.275622
 C         0.589164        -1.781439        -2.620574
 C         0.947287        -0.351747        -2.166718
 H        -0.337908         1.149884        -0.104106
 H        -0.475014        -0.399695         0.573857
 H         0.785081         0.866984         1.274364
 H         3.433111         0.531791        -0.216743
 H         2.764191         0.863373        -2.987642
 H         3.455068        -1.141355        -4.101659
 H         3.733220        -1.955162        -2.462120
 H        -0.053813        -1.754950        -3.515495
 H         0.171268        -2.419395        -1.834414
 H         0.341729         0.452834        -2.679291
