19
Iteration:    86charge 0 multiplicity 1
 C         0.171549         0.405920         0.253821
 C         1.309210        -0.150573        -0.548543
 O         2.383485        -1.161557        -0.093683
 C         2.746360         0.019188        -0.876671
 C         2.400604        -0.195360        -2.356609
 C         2.933767        -1.504331        -3.007483
 O         1.837561        -2.346640        -3.425740
 C         0.593944        -1.815244        -2.795301
 C         0.888806        -0.489922        -2.031478
 H         0.362126         1.442402         0.390938
 H        -0.828745         0.302360        -0.330615
 H         0.045457        -0.068405         1.193934
 H         3.537321         0.531015        -0.525596
 H         2.475540         0.707187        -2.960695
 H         3.415373        -1.201483        -3.932682
 H         3.527420        -2.114761        -2.341634
 H        -0.063530        -1.587096        -3.571307
 H         0.254730        -2.619673        -2.103743
 H         0.168310         0.372908        -2.385961
