19
Iteration:   989charge 0 multiplicity 1
 C         0.252058         0.426909         0.331595
 C         1.223649        -0.173513        -0.665636
 O         2.132572        -1.275495        -0.276015
 C         2.719778         0.020818        -0.864420
 C         2.445044        -0.171379        -2.380781
 C         2.969525        -1.461811        -3.166191
 O         1.785119        -2.216359        -3.343173
 C         0.782345        -1.899854        -2.446360
 C         0.961958        -0.450459        -2.104820
 H         0.029231         1.545497         0.215375
 H        -0.660744        -0.046270         0.207900
 H         0.665134         0.308191         1.376809
 H         3.613612         0.442628        -0.407908
 H         2.681097         0.759571        -2.944806
 H         3.290515        -1.403011        -4.252873
 H         3.742014        -2.073591        -2.611658
 H        -0.259960        -2.039056        -3.075171
 H         0.634609        -2.523690        -1.525969
 H         0.278361         0.284127        -2.747745
