19
Iteration:  3583charge 0 multiplicity 1
 C         0.268110         0.295907         0.309615
 C         1.262168        -0.128316        -0.688671
 O         1.987671        -1.405756        -0.279076
 C         2.715851        -0.275157        -0.692459
 C         2.610321        -0.280665        -2.256005
 C         2.968357        -1.532931        -3.000249
 O         1.769685        -2.137366        -3.370343
 C         0.641547        -1.510171        -2.770449
 C         1.059575        -0.224885        -2.218147
 H        -0.135149        -0.385555         0.927664
 H         0.741901         0.972141         0.992420
 H        -0.526498         0.879909        -0.285047
 H         3.491098         0.065128        -0.008054
 H         3.232009         0.576890        -2.606545
 H         3.545866        -1.348399        -3.919914
 H         3.528930        -2.200579        -2.390510
 H        -0.244606        -1.541817        -3.428424
 H         0.312878        -2.240870        -1.930252
 H         0.568057         0.658938        -2.402154
