19
Iteration:   872charge 0 multiplicity 1
 C         0.342039         0.056408         0.493841
 C         1.195670        -0.335774        -0.698375
 O         2.330247        -1.121067        -0.346049
 C         2.630534         0.144894        -0.908858
 C         2.503509        -0.104258        -2.521211
 C         2.851393        -1.570849        -2.950669
 O         1.745949        -2.431795        -2.812460
 C         0.636367        -1.567658        -3.007888
 C         1.002895        -0.286810        -2.230115
 H        -0.483424         0.817381         0.167858
 H        -0.132954        -0.834440         0.918996
 H         0.996508         0.627744         1.308051
 H         3.308971         0.706179        -0.392695
 H         2.766165         0.694348        -3.281607
 H         3.115794        -1.519615        -4.080406
 H         3.634441        -1.908041        -2.277872
 H         0.398726        -1.243787        -4.013141
 H        -0.165750        -2.220140        -2.608904
 H         0.346687         0.564052        -2.543104
