19
Iteration:  1499charge 0 multiplicity 1
 C         0.377128         0.529952         0.419973
 C         1.156931        -0.207477        -0.628760
 O         2.056551        -1.338312        -0.334004
 C         2.616957        -0.227949        -0.846618
 C         2.449569        -0.106342        -2.401075
 C         2.974977        -1.285229        -3.241688
 O         1.999064        -2.439100        -2.943665
 C         0.683294        -1.806137        -2.819841
 C         0.922243        -0.377499        -2.171351
 H         0.119499         1.518670         0.184995
 H        -0.586939        -0.041307         0.730429
 H         1.077497         0.698978         1.327636
 H         3.241162         0.370417        -0.233435
 H         2.715694         0.841630        -2.656105
 H         2.902965        -1.111229        -4.316398
 H         4.017431        -1.544231        -3.225216
 H         0.059949        -1.708232        -3.733703
 H         0.117529        -2.388279        -2.127112
 H         0.224355         0.426615        -2.458212
