19
Iteration:  3695
 C         0.283263         0.372563         0.459496
 C         1.198966        -0.189155        -0.642686
 O         2.031143        -1.345147        -0.139788
 C         2.694957        -0.183606        -0.709546
 C         2.652662        -0.309724        -2.237111
 C         2.938097        -1.744570        -2.899029
 O         1.776313        -1.941480        -3.674104
 C         0.622317        -1.615413        -2.901981
 C         1.076802        -0.273107        -2.189442
 H         0.806023         0.097783         1.421222
 H         0.183001         1.467100         0.316814
 H        -0.760585        -0.046045         0.506648
 H         3.516521         0.201023         0.052443
 H         3.106842         0.517048        -2.818509
 H         3.747445        -1.669408        -3.608169
 H         3.158091        -2.451898        -2.132611
 H        -0.162863        -1.475937        -3.628962
 H         0.204179        -2.529589        -2.251406
 H         0.622006         0.671733        -2.633885
