19
Iteration:  4169
 C         0.186033         0.252202         0.337461
 C         1.249371        -0.284916        -0.577614
 O         1.944855        -1.446731        -0.214083
 C         2.726125        -0.273452        -0.612102
 C         2.759100        -0.367068        -2.208187
 C         2.952243        -1.727838        -2.804903
 O         1.733621        -2.047585        -3.555015
 C         0.569521        -1.167182        -3.114972
 C         1.212678        -0.166936        -2.133290
 H         0.799219         0.491696         1.224058
 H        -0.358961         1.194449         0.001882
 H        -0.710011        -0.355145         0.507537
 H         3.426656        -0.073777         0.090341
 H         3.296789         0.408685        -2.715931
 H         3.703691        -1.869719        -3.585564
 H         3.126452        -2.447276        -2.046712
 H         0.141535        -0.661846        -3.996064
 H        -0.159631        -1.988961        -2.643797
 H         0.961956         0.904004        -2.402949
