19
Iteration:    17charge 0 multiplicity 1
 C         0.234529         0.368560         0.514490
 C         1.192394        -0.070367        -0.620861
 O         2.108772        -1.096470        -0.170236
 C         2.685534         0.055706        -1.028325
 C         2.468010        -0.217279        -2.506548
 C         3.028350        -1.628886        -2.916825
 O         1.816504        -2.207107        -3.577402
 C         0.783447        -1.928612        -2.537304
 C         0.906045        -0.427321        -2.169888
 H         0.924277         0.844985         1.261831
 H        -0.722495         0.942923         0.418393
 H        -0.229307        -0.608831         0.905718
 H         3.727586         0.265806        -0.609956
 H         2.747336         0.612613        -3.191396
 H         3.874465        -1.596478        -3.641824
 H         3.149777        -2.141149        -1.913957
 H        -0.181958        -2.167696        -3.034309
 H         1.094828        -2.485778        -1.643259
 H         0.176850         0.254670        -2.651949
