19
Iteration:  3610
 C         0.102475         0.259099         0.397040
 C         1.262104        -0.166032        -0.571965
 O         2.025381        -1.306306        -0.225464
 C         2.774135        -0.166102        -0.691874
 C         2.705270        -0.272344        -2.317001
 C         3.007347        -1.621194        -3.070652
 O         1.693024        -2.204945        -3.446865
 C         0.574706        -1.438197        -2.818217
 C         1.207903        -0.287592        -2.196820
 H        -0.225045        -0.538068         1.188700
 H         0.288850         1.127219         1.086153
 H        -0.636144         0.431262        -0.307095
 H         3.477145         0.241699         0.062308
 H         3.099415         0.617930        -2.793233
 H         3.615847        -1.585193        -3.977163
 H         3.463537        -2.342523        -2.334437
 H        -0.183178        -1.243352        -3.571513
 H         0.180143        -2.117305        -2.119247
 H         0.765115         0.768908        -2.480216
