19
Iteration:  3949charge 0 multiplicity 1
 C         0.264692         0.336252         0.328307
 C         1.295418        -0.213974        -0.620603
 O         1.889675        -1.485919        -0.226932
 C         2.709984        -0.313239        -0.707663
 C         2.620213        -0.309626        -2.203245
 C         3.016156        -1.696335        -2.843838
 O         1.727261        -1.944618        -3.584378
 C         0.660197        -1.403944        -2.873461
 C         1.134956        -0.190945        -2.205543
 H        -0.518111        -0.489950         0.732250
 H         0.748341         0.780456         1.215760
 H        -0.456723         0.964720        -0.178722
 H         3.588350         0.049904        -0.108023
 H         3.161433         0.541019        -2.693125
 H         3.844227        -1.659444        -3.595725
 H         3.271216        -2.416416        -1.932413
 H        -0.184679        -1.239449        -3.546386
 H         0.294558        -2.125689        -2.113032
 H         0.901292         0.859287        -2.529505
