19
Iteration:  4476charge 0 multiplicity 1
 C         0.300769         0.333633         0.328812
 C         1.253165        -0.206697        -0.616290
 O         1.722333        -1.517574        -0.189300
 C         2.639522        -0.429208        -0.616874
 C         2.761409        -0.325413        -2.153416
 C         3.037869        -1.541242        -2.980742
 O         1.758074        -2.202687        -3.410850
 C         0.596977        -1.233199        -3.076570
 C         1.243858        -0.091435        -2.152328
 H         0.648144         0.181527         1.304899
 H         0.176431         1.369789         0.002259
 H        -0.665282        -0.145864        -0.004097
 H         3.491306        -0.274523         0.219521
 H         3.257429         0.616086        -2.354381
 H         3.587847        -1.382889        -3.944101
 H         3.490649        -2.474787        -2.487013
 H         0.286202        -0.739053        -4.086517
 H        -0.102783        -1.802109        -2.485776
 H         1.074779         0.961166        -2.581052
