19
Iteration:   183
 C         0.266490         0.376903         0.416002
 C         1.175004        -0.201788        -0.664944
 O         2.127855        -1.366708        -0.372991
 C         2.690881        -0.157748        -0.915421
 C         2.470362        -0.038582        -2.470595
 C         2.978002        -1.408522        -3.100945
 O         1.914984        -2.421869        -2.994763
 C         0.624571        -1.672521        -2.714576
 C         0.963140        -0.276832        -2.191358
 H        -0.492823         0.912276        -0.081238
 H        -0.068265        -0.445716         1.221588
 H         0.800697         1.088809         1.000695
 H         3.416851         0.267399        -0.433523
 H         2.796539         0.947007        -2.815068
 H         3.368474        -1.488298        -4.174371
 H         3.913250        -1.780900        -2.482382
 H        -0.057353        -1.875223        -3.584910
 H         0.300802        -2.136731        -1.746469
 H         0.264486         0.541107        -2.547761
