19
Iteration:  1953charge 0 multiplicity 1
 C         0.277559         0.226256         0.335973
 C         1.255231        -0.302167        -0.667705
 O         2.278101        -1.194063        -0.224784
 C         2.603368         0.083441        -0.853739
 C         2.559127        -0.169725        -2.409446
 C         2.915074        -1.484230        -3.133522
 O         1.823525        -2.380539        -2.972180
 C         0.572158        -1.693331        -2.856900
 C         0.970565        -0.354300        -2.175083
 H         0.166692         1.445791         0.311840
 H        -0.676649        -0.248739         0.049988
 H         0.595105        -0.066704         1.303851
 H         3.216484         0.960172        -0.385220
 H         2.973473         0.797687        -2.943962
 H         3.041296        -1.215468        -4.194601
 H         3.854917        -1.830385        -2.651172
 H         0.028092        -1.612748        -3.840225
 H        -0.081878        -2.413341        -2.232105
 H         0.375099         0.570096        -2.359774
