19
Iteration:  3796charge 0 multiplicity 1
 C         0.325166         0.578844         0.422483
 C         1.157707        -0.202304        -0.522719
 O         1.855454        -1.461157        -0.145621
 C         2.614058        -0.401599        -0.697065
 C         2.624708        -0.370714        -2.219880
 C         3.070128        -1.561405        -3.104118
 O         1.814848        -1.952032        -3.686284
 C         0.669669        -1.637665        -2.780292
 C         1.134488        -0.293998        -2.149495
 H         0.483521         1.720073         0.166548
 H        -0.781200         0.494260         0.338149
 H         0.563851         0.250264         1.364797
 H         3.400586        -0.012194        -0.169496
 H         3.085128         0.513274        -2.604376
 H         3.684121        -1.130064        -3.860912
 H         3.596215        -2.363277        -2.598884
 H        -0.234707        -1.589832        -3.352543
 H         0.545720        -2.456213        -1.969027
 H         0.719025         0.718979        -2.629487
