19
Iteration:  4724
 C         0.328007         0.326506         0.391236
 C         1.162677        -0.245120        -0.643201
 O         1.683820        -1.583098        -0.452019
 C         2.611558        -0.384238        -0.652014
 C         2.807611        -0.290088        -2.158626
 C         3.012627        -1.621279        -2.917379
 O         1.775302        -2.153409        -3.240317
 C         0.753639        -1.198982        -3.047955
 C         1.174171        -0.059237        -2.201004
 H         0.881281         0.673983         1.176815
 H        -0.242879         1.255285         0.078687
 H        -0.354875        -0.307740         0.827642
 H         3.445872        -0.494614         0.052471
 H         3.441208         0.641801        -2.550339
 H         3.716406        -1.421388        -3.760277
 H         3.281670        -2.317785        -2.140304
 H         0.343181        -0.876740        -4.074888
 H        -0.085417        -1.830831        -2.557906
 H         0.956884         0.993571        -2.463207
