19
Iteration:  1907charge 0 multiplicity 1
 C         0.283037         0.011238         0.389036
 C         1.299171        -0.070375        -0.741432
 O         2.151036        -1.246733        -0.404894
 C         2.735004         0.003325        -0.955584
 C         2.542620        -0.104319        -2.489957
 C         2.982099        -1.512288        -2.946636
 O         1.822033        -2.352264        -2.808720
 C         0.584166        -1.623773        -2.780904
 C         0.892979        -0.220720        -2.227902
 H        -0.539738         0.842134         0.127147
 H        -0.155740        -1.074818         0.395494
 H         0.784976         0.285636         1.313058
 H         3.454786         0.466264        -0.433478
 H         2.856200         0.725512        -3.051198
 H         3.215169        -1.329450        -3.995771
 H         3.751669        -2.054186        -2.420083
 H         0.086446        -1.477608        -3.746314
 H        -0.187942        -2.198888        -2.144564
 H         0.289445         0.478122        -2.805300
