19
Iteration:  2420
 C         0.258046         0.229608         0.400692
 C         1.199314        -0.222955        -0.684984
 O         2.303186        -1.149011        -0.159148
 C         2.665410         0.058606        -0.860850
 C         2.560601        -0.170812        -2.384902
 C         2.928346        -1.472935        -3.106743
 O         1.821840        -2.427732        -3.145963
 C         0.573624        -1.689844        -2.803434
 C         0.997766        -0.399299        -2.174188
 H        -0.491716         0.852858        -0.011877
 H        -0.564801        -0.644756         0.785932
 H         0.710373         0.748761         1.222055
 H         3.387554         0.856618        -0.335579
 H         2.777707         0.649186        -3.045746
 H         3.076176        -1.144381        -4.192140
 H         3.843046        -2.003256        -2.802007
 H        -0.115764        -1.352787        -3.777880
 H        -0.089604        -2.264001        -2.266174
 H         0.230446         0.407220        -2.541216
