19
Iteration:  4392charge 0 multiplicity 1
 C         0.156459         0.438748         0.384805
 C         1.192394        -0.155276        -0.588351
 O         1.850039        -1.475162        -0.242915
 C         2.751404        -0.411993        -0.595524
 C         2.771463        -0.452882        -2.178650
 C         3.022246        -1.772915        -2.907701
 O         1.752807        -1.913751        -3.657966
 C         0.687561        -1.355552        -2.963816
 C         1.221113        -0.147526        -2.144417
 H         0.019180         0.255675         1.516988
 H        -0.131092         1.442249         0.226971
 H        -0.783732        -0.172174         0.066911
 H         3.307013         0.059095         0.228417
 H         3.191938         0.452130        -2.566447
 H         3.863835        -1.677610        -3.619902
 H         3.216742        -2.617353        -2.273121
 H        -0.107939        -1.077782        -3.595860
 H         0.133172        -2.040711        -2.222058
 H         0.960654         0.761709        -2.666612
