19
Iteration:  4260charge 0 multiplicity 1
 C         0.226453         0.528174         0.455323
 C         1.213009        -0.241812        -0.589349
 O         1.761002        -1.528714        -0.385965
 C         2.642729        -0.414664        -0.624890
 C         2.783009        -0.285295        -2.167771
 C         3.079556        -1.658882        -2.968187
 O         1.790952        -1.993600        -3.581476
 C         0.683222        -1.435680        -2.889364
 C         1.132473        -0.194941        -2.155511
 H         0.506348         0.279125         1.464231
 H         0.354902         1.596514         0.282186
 H        -0.813200         0.217013         0.075595
 H         3.430843        -0.205727         0.245455
 H         3.324303         0.622172        -2.403324
 H         3.898005        -1.685690        -3.721689
 H         3.290724        -2.394376        -2.168079
 H        -0.202756        -1.231094        -3.461687
 H         0.336700        -2.175020        -2.000384
 H         0.854438         0.641247        -2.802837
