19
Iteration:  4968
 C         0.099768         0.329580         0.303491
 C         1.231647        -0.215560        -0.560984
 O         1.840490        -1.521647        -0.232910
 C         2.665309        -0.454485        -0.526715
 C         2.815800        -0.437413        -2.115635
 C         3.019036        -1.623518        -3.071562
 O         1.684926        -2.190112        -3.320453
 C         0.719086        -1.119066        -3.167534
 C         1.250156        -0.039754        -2.174970
 H         0.606197         0.868365         1.231535
 H        -0.322800         1.063740        -0.325695
 H        -0.714732        -0.394038         0.602398
 H         3.597496        -0.018944         0.094152
 H         3.308249         0.504321        -2.211991
 H         3.427734        -1.301659        -3.981746
 H         3.632325        -2.379351        -2.729631
 H         0.314689        -0.718319        -4.090537
 H        -0.097461        -1.582947        -2.518354
 H         1.169029         0.927497        -2.674932
