19
Iteration:  1330charge 0 multiplicity 1
 C         0.329032         0.431257         0.429193
 C         1.226548        -0.212169        -0.589919
 O         2.120397        -1.158950        -0.109974
 C         2.654983         0.010009        -0.828343
 C         2.436037        -0.230804        -2.409630
 C         2.971304        -1.469015        -3.088065
 O         1.836981        -2.334821        -3.415656
 C         0.699779        -1.841369        -2.818521
 C         0.969031        -0.426823        -2.120369
 H        -0.356382         1.344124        -0.050116
 H        -0.253998        -0.390803         0.953919
 H         0.992295         0.711750         1.281088
 H         3.515114         0.488791        -0.213066
 H         2.735227         0.657495        -2.930779
 H         3.361254        -1.341190        -4.122732
 H         3.637227        -2.017739        -2.376262
 H        -0.106869        -1.562509        -3.533797
 H         0.374371        -2.583917        -2.149183
 H         0.291736         0.331833        -2.572551
