19
Iteration:  2448
 C         0.307049         0.163176         0.467163
 C         1.256341        -0.279652        -0.594634
 O         2.271199        -1.163942        -0.276101
 C         2.690452         0.082280        -0.989679
 C         2.433688        -0.180730        -2.451009
 C         2.945546        -1.527185        -2.910396
 O         1.863797        -2.385798        -3.073979
 C         0.571831        -1.615076        -2.944761
 C         0.901053        -0.340550        -2.173492
 H        -0.539939         0.741178        -0.096228
 H        -0.168570        -0.625603         0.895688
 H         0.651280         0.986178         1.126752
 H         3.481143         0.678774        -0.549484
 H         2.670867         0.651169        -3.169405
 H         3.503476        -1.388324        -3.848297
 H         3.694730        -1.892485        -2.166535
 H         0.147221        -1.329363        -3.857181
 H        -0.205098        -2.293416        -2.370552
 H         0.289331         0.507484        -2.425310
