19
Iteration:  3473charge 0 multiplicity 1
 C         0.200543         0.466273         0.265537
 C         1.266902        -0.178655        -0.579387
 O         2.100843        -1.282368        -0.085083
 C         2.782575        -0.259282        -0.713555
 C         2.600250        -0.325912        -2.261943
 C         2.889978        -1.622104        -2.980952
 O         1.730892        -1.871964        -3.683498
 C         0.738245        -1.787546        -2.730827
 C         0.993583        -0.413634        -2.128970
 H        -0.545359         0.835893        -0.326236
 H        -0.311965        -0.377101         0.772757
 H         0.535522         1.406064         0.887748
 H         3.493213         0.205316        -0.102815
 H         2.942628         0.615171        -2.760342
 H         3.665293        -1.520363        -3.756231
 H         3.186715        -2.403375        -2.334195
 H        -0.244428        -1.858897        -3.222729
 H         0.692836        -2.548846        -1.929434
 H         0.561097         0.447246        -2.607424
