19
Iteration:  1327
 C         0.317830         0.423909         0.435367
 C         1.224701        -0.198931        -0.589503
 O         2.093268        -1.159048        -0.136469
 C         2.664392        -0.017454        -0.830629
 C         2.446744        -0.242860        -2.440630
 C         2.955201        -1.451000        -3.093660
 O         1.853796        -2.335645        -3.396671
 C         0.710662        -1.828065        -2.801317
 C         0.975909        -0.429924        -2.097705
 H        -0.270309         1.189787        -0.003161
 H        -0.239938        -0.275080         0.934524
 H         1.013318         0.749269         1.299532
 H         3.376435         0.476728        -0.310752
 H         2.879031         0.700951        -2.942594
 H         3.359164        -1.269667        -4.078619
 H         3.593957        -1.989520        -2.445491
 H        -0.074872        -1.576387        -3.542461
 H         0.330246        -2.597647        -2.029530
 H         0.282686         0.308501        -2.566011
