19
Iteration:  2987charge 0 multiplicity 1
 C         0.142112         0.503831         0.293897
 C         1.159748        -0.224147        -0.565127
 O         2.310510        -1.212456        -0.042204
 C         2.676434         0.041406        -0.764627
 C         2.578956        -0.309886        -2.347769
 C         2.961644        -1.550690        -3.084850
 O         1.672724        -2.042943        -3.699852
 C         0.797970        -1.948401        -2.580944
 C         0.981470        -0.512207        -2.098742
 H         0.154708         1.616568         0.062903
 H        -0.940518         0.347473         0.011948
 H         0.291821         0.366913         1.351415
 H         3.375207         0.750992        -0.042465
 H         2.559553         0.558280        -3.008306
 H         3.635059        -1.426189        -3.982920
 H         3.400924        -2.401682        -2.372308
 H        -0.204856        -2.296083        -3.095060
 H         1.074843        -2.650921        -1.884002
 H         0.294317         0.100984        -2.625889
