19
Iteration:  2985charge 0 multiplicity 1
 C         0.131414         0.508645         0.304502
 C         1.173815        -0.214518        -0.573946
 O         2.320028        -1.213846        -0.042302
 C         2.681071         0.015736        -0.757782
 C         2.555035        -0.313477        -2.352926
 C         2.957314        -1.536109        -3.062054
 O         1.679034        -2.044772        -3.699370
 C         0.799290        -1.951891        -2.594159
 C         0.975498        -0.506592        -2.097766
 H         0.154893         1.653722         0.094830
 H        -0.899196         0.387001        -0.008597
 H         0.252621         0.399025         1.289277
 H         3.374026         0.696199        -0.160864
 H         2.594885         0.588742        -2.982111
 H         3.629883        -1.407023        -3.971626
 H         3.368801        -2.369672        -2.402951
 H        -0.212257        -2.339812        -3.062986
 H         1.130846        -2.701492        -1.881137
 H         0.292006         0.088240        -2.671798
