19
Iteration:   669
 C         0.209411         0.319724         0.310611
 C         1.260338        -0.114267        -0.622160
 O         2.094267        -1.242140        -0.241156
 C         2.708286        -0.059602        -0.923083
 C         2.505598        -0.170377        -2.414258
 C         2.941760        -1.389948        -3.225601
 O         1.880289        -2.413518        -3.145146
 C         0.675413        -1.808024        -2.549076
 C         1.014163        -0.329981        -2.108671
 H        -0.244208         1.188497        -0.167537
 H        -0.728431        -0.444882         0.478806
 H         0.659351         0.545969         1.249176
 H         3.582381         0.353818        -0.448293
 H         2.769577         0.725074        -2.796045
 H         2.946904        -0.981577        -4.245644
 H         3.960534        -1.776542        -3.043707
 H        -0.090087        -1.597499        -3.339278
 H         0.242731        -2.509360        -1.885426
 H         0.481855         0.482417        -2.457050
