19
Iteration:  4373
 C         0.127578         0.436090         0.259941
 C         1.206003        -0.210130        -0.534625
 O         1.817972        -1.454446        -0.153739
 C         2.725849        -0.342571        -0.548925
 C         2.777182        -0.440109        -2.099149
 C         2.952588        -1.748029        -2.989163
 O         1.803750        -1.854301        -3.789445
 C         0.680351        -1.414063        -2.888536
 C         1.233185        -0.212832        -2.111455
 H         0.546618         0.663099         1.312475
 H         0.016633         1.426548        -0.170108
 H        -0.760179        -0.115428         0.335370
 H         3.540676        -0.199948         0.023285
 H         3.491454         0.394333        -2.420594
 H         3.720496        -1.778208        -3.752736
 H         3.037551        -2.694837        -2.440454
 H        -0.316960        -1.180708        -3.423525
 H         0.313584        -2.292930        -2.244788
 H         0.970736         0.775569        -2.426206
