19
Iteration:  2766
 C         0.321378         0.171303         0.423298
 C         1.226182        -0.308248        -0.741818
 O         2.339434        -1.242583        -0.330898
 C         2.631959         0.011504        -0.893345
 C         2.511862        -0.050065        -2.430847
 C         2.885276        -1.446824        -2.965587
 O         1.820791        -2.418847        -2.846794
 C         0.575833        -1.631430        -2.936428
 C         0.894418        -0.276871        -2.289884
 H        -0.033323         1.295510         0.203437
 H        -0.593162        -0.377808         0.727348
 H         0.917026         0.014297         1.324899
 H         3.312418         0.667368        -0.364288
 H         2.856959         0.818806        -3.051366
 H         3.329102        -1.546864        -3.943929
 H         3.646644        -1.776603        -2.204914
 H         0.369927        -1.561473        -4.010323
 H        -0.202384        -2.187148        -2.501389
 H         0.224455         0.471128        -2.542721
