19
Iteration:  2847
 C         0.202340         0.180760         0.349545
 C         1.174090        -0.238565        -0.621326
 O         2.244875        -1.158914        -0.263927
 C         2.706142         0.034987        -0.876616
 C         2.634259        -0.160148        -2.432525
 C         2.969047        -1.506308        -3.078452
 O         1.740972        -2.352499        -3.141348
 C         0.592459        -1.694497        -2.752206
 C         1.054660        -0.366053        -2.169373
 H        -0.706650         0.662164        -0.101701
 H        -0.267021        -0.685719         0.942849
 H         0.817881         0.928672         0.975404
 H         3.325351         0.814910        -0.252379
 H         2.800979         0.757889        -2.990809
 H         3.266216        -1.194692        -4.062607
 H         3.736051        -2.043968        -2.608446
 H        -0.073738        -1.521808        -3.553370
 H        -0.019362        -2.172687        -1.851272
 H         0.306837         0.503121        -2.271004
