19
Iteration:  4963charge 0 multiplicity 1
 C         0.090197         0.348337         0.327781
 C         1.227526        -0.201483        -0.547096
 O         1.843250        -1.547496        -0.191810
 C         2.695597        -0.458944        -0.546879
 C         2.811604        -0.422042        -2.121478
 C         2.983683        -1.641917        -3.100849
 O         1.698969        -2.158960        -3.339245
 C         0.736143        -1.130827        -3.146340
 C         1.253293        -0.070489        -2.173662
 H         0.496482         0.877727         1.101367
 H        -0.317947         1.092148        -0.516553
 H        -0.701025        -0.314685         0.592535
 H         3.397383        -0.075630         0.074167
 H         3.302632         0.603144        -2.335078
 H         3.447210        -1.245056        -4.091975
 H         3.602507        -2.465516        -2.520961
 H         0.386211        -0.703968        -4.202101
 H        -0.033554        -1.663494        -2.626134
 H         1.107011         0.984156        -2.498377
