19
Iteration:   452
 C         0.356344         0.546644         0.433127
 C         1.182602        -0.130351        -0.598462
 O         2.068646        -1.192627        -0.066648
 C         2.649468        -0.124995        -0.842553
 C         2.412376        -0.204992        -2.444830
 C         3.006154        -1.441763        -3.122717
 O         1.887885        -2.216782        -3.530509
 C         0.760414        -1.994151        -2.562982
 C         0.893090        -0.489727        -2.220947
 H        -0.274921         1.469746         0.021932
 H        -0.325864        -0.117626         0.701642
 H         1.008185         0.919677         1.215383
 H         3.555009         0.377239        -0.362965
 H         2.540221         0.761081        -2.876429
 H         3.499592        -1.104286        -4.060213
 H         3.600642        -2.058202        -2.500818
 H        -0.152955        -2.206182        -3.076139
 H         0.876870        -2.671129        -1.701242
 H         0.189609         0.125044        -2.729154
