19
Iteration:  1022
 C         0.397989         0.608061         0.405750
 C         1.197583        -0.193827        -0.582108
 O         2.055894        -1.223958        -0.123842
 C         2.612423        -0.014036        -0.870609
 C         2.394988        -0.211755        -2.379160
 C         2.946307        -1.492532        -3.158732
 O         1.835737        -2.211215        -3.594692
 C         0.884054        -1.996326        -2.535179
 C         0.870566        -0.520897        -2.089244
 H         0.452511         1.742781         0.166463
 H        -0.591873         0.313431         0.436056
 H         0.818375         0.375081         1.455514
 H         3.408640         0.547562        -0.423527
 H         2.663914         0.765920        -2.906311
 H         3.553858        -1.236373        -4.102217
 H         3.695317        -2.031689        -2.474815
 H        -0.090465        -2.372250        -3.157018
 H         1.056635        -2.663788        -1.651918
 H         0.061748         0.248885        -2.571966
