19
Iteration:  1600charge 0 multiplicity 1
 C         0.249264         0.275243         0.369747
 C         1.216206        -0.177891        -0.663856
 O         2.221624        -1.174902        -0.203024
 C         2.715123        -0.065298        -0.877052
 C         2.523672        -0.229521        -2.396676
 C         2.949020        -1.487529        -3.057780
 O         1.803659        -2.281031        -3.285062
 C         0.635143        -1.740233        -2.674128
 C         0.986279        -0.389533        -2.170590
 H        -0.307985         1.177318        -0.006276
 H        -0.577672        -0.499966         0.425167
 H         0.599908         0.552751         1.435391
 H         3.322022         0.801031        -0.388475
 H         2.662205         0.632238        -3.069170
 H         3.341578        -1.127160        -4.091471
 H         3.627268        -2.100648        -2.394584
 H        -0.235079        -1.837661        -3.416346
 H         0.375303        -2.218264        -1.750770
 H         0.447588         0.561392        -2.520482
