19
Iteration:   929charge 0 multiplicity 1
 C         0.307051         0.158643         0.430343
 C         1.243781        -0.275066        -0.662200
 O         2.306969        -1.116628        -0.257094
 C         2.663631         0.156351        -0.935169
 C         2.522141        -0.163782        -2.406124
 C         3.019862        -1.547309        -2.975422
 O         1.707644        -2.446175        -3.123242
 C         0.522127        -1.631525        -2.858527
 C         0.974837        -0.348206        -2.186625
 H        -0.541281         0.659695         0.025536
 H        -0.134576        -0.830579         0.930203
 H         0.785081         0.690122         1.269403
 H         3.280099         1.045155        -0.449727
 H         2.698322         0.713186        -3.035087
 H         3.473909        -1.396728        -3.985482
 H         3.812522        -2.100312        -2.401688
 H        -0.068792        -1.320755        -3.643516
 H        -0.136958        -2.266452        -2.185239
 H         0.509735         0.491402        -2.541433
