19
Iteration:  3170charge 0 multiplicity 1
 C         0.169489         0.328078         0.346045
 C         1.244900        -0.241489        -0.649876
 O         2.160869        -1.345740        -0.274421
 C         2.711906        -0.112552        -0.859061
 C         2.558633        -0.183666        -2.375654
 C         2.947125        -1.464075        -3.164934
 O         1.834780        -2.273337        -2.987555
 C         0.611592        -1.624113        -2.857853
 C         1.027420        -0.318648        -2.097619
 H        -0.342540        -0.569679         0.994198
 H         0.657341         0.962124         1.102867
 H        -0.508344         0.812256        -0.292038
 H         3.613461         0.372523        -0.266760
 H         2.744316         0.781846        -2.932324
 H         3.098393        -1.039887        -4.222583
 H         3.841849        -2.031484        -2.896500
 H         0.183290        -1.462824        -3.771496
 H        -0.097301        -2.301282        -2.306982
 H         0.578495         0.644162        -2.526925
