19
Iteration:  1043charge 0 multiplicity 1
 C         0.372376         0.680071         0.471633
 C         1.150853        -0.181908        -0.571155
 O         2.127911        -1.127015        -0.053763
 C         2.632988        -0.076892        -0.875848
 C         2.399554        -0.302104        -2.372207
 C         3.004808        -1.420370        -3.120910
 O         1.854803        -2.117254        -3.690422
 C         0.708043        -2.102425        -2.623007
 C         0.941835        -0.659987        -2.078244
 H         0.209376         1.751292         0.070322
 H        -0.603551         0.313757         0.626387
 H         0.950506         0.729854         1.473435
 H         3.406863         0.584110        -0.475199
 H         2.645907         0.646350        -2.923101
 H         3.749526        -1.263255        -3.969608
 H         3.579631        -2.163847        -2.454171
 H        -0.344966        -2.234755        -3.084975
 H         0.867280        -2.907847        -1.881461
 H         0.235892         0.090934        -2.675425
