19
Iteration:  3100charge 0 multiplicity 1
 C         0.249731         0.282866         0.433510
 C         1.236514        -0.204719        -0.618237
 O         2.127806        -1.238387        -0.294930
 C         2.679202         0.006595        -0.879183
 C         2.498334        -0.171548        -2.404248
 C         2.970578        -1.543513        -2.982544
 O         1.846928        -2.325575        -3.284142
 C         0.627415        -1.677654        -2.778976
 C         1.028337        -0.324527        -2.155322
 H        -0.767306         0.190665         0.231342
 H         0.356395        -0.420233         1.318488
 H         0.492359         1.429759         0.677610
 H         3.511595         0.347082        -0.405295
 H         2.621097         0.685458        -3.086003
 H         3.587788        -1.450093        -3.868809
 H         3.657922        -1.965811        -2.093784
 H        -0.111136        -1.558719        -3.552470
 H         0.158158        -2.294910        -2.055026
 H         0.367118         0.520763        -2.515632
