19
Iteration:  1338
 C         0.325396         0.429126         0.412611
 C         1.200572        -0.212437        -0.590786
 O         2.210476        -1.170148        -0.050211
 C         2.668500         0.065882        -0.821946
 C         2.454259        -0.190844        -2.310272
 C         3.013689        -1.545849        -3.078791
 O         1.820039        -2.320412        -3.474131
 C         0.618460        -1.828341        -2.837966
 C         0.932104        -0.461352        -2.181748
 H        -0.256743         1.263338         0.125842
 H        -0.323838        -0.303871         0.709489
 H         0.963820         0.854844         1.262101
 H         3.431534         0.507907        -0.319952
 H         2.410592         0.745306        -2.988259
 H         3.608090        -1.359092        -3.974419
 H         3.676358        -2.061182        -2.428792
 H        -0.157781        -1.741222        -3.633917
 H         0.224562        -2.672704        -2.143377
 H         0.331048         0.411967        -2.542283
