19
Iteration:  4416
 C         0.315896         0.289077         0.272183
 C         1.196791        -0.232443        -0.677466
 O         1.765809        -1.487941        -0.256569
 C         2.728104        -0.337158        -0.603317
 C         2.810150        -0.284839        -2.166595
 C         2.908643        -1.711543        -2.782669
 O         1.754175        -2.006917        -3.543136
 C         0.674543        -1.342270        -3.007178
 C         1.214335        -0.070371        -2.186276
 H         0.492088        -0.211381         1.305368
 H         0.403888         1.352047         0.442826
 H        -0.716050         0.020287         0.206774
 H         3.348299        -0.310150         0.166703
 H         3.403122         0.553689        -2.603440
 H         3.788763        -1.558185        -3.380535
 H         3.111513        -2.480383        -2.085102
 H        -0.065832        -1.142788        -3.828622
 H        -0.034751        -1.925987        -2.270378
 H         0.707998         0.769665        -2.585575
