19
Iteration:  1990
 C         0.286021         0.470454         0.403816
 C         1.244216        -0.228297        -0.473328
 O         2.173251        -1.247460        -0.160775
 C         2.644015        -0.027593        -0.928727
 C         2.422109        -0.170291        -2.463553
 C         2.933362        -1.392258        -3.219673
 O         1.965092        -2.424466        -3.104051
 C         0.654617        -1.806258        -2.910732
 C         0.917424        -0.405450        -2.035665
 H         0.184818         1.447217         0.228822
 H        -0.646823         0.063035         0.111660
 H         0.352446         0.263639         1.549070
 H         3.369811         0.534493        -0.400000
 H         2.818296         0.737425        -2.944981
 H         3.092269        -1.214747        -4.345091
 H         3.858342        -1.902892        -2.898109
 H         0.148735        -1.357300        -3.842597
 H         0.107546        -2.553184        -2.455941
 H         0.235879         0.312473        -2.446607
