19
Iteration:  2806charge 0 multiplicity 1
 C         0.170470         0.145828         0.468764
 C         1.223179        -0.233525        -0.620918
 O         2.329197        -1.092612        -0.188052
 C         2.717565         0.031239        -0.943108
 C         2.493519        -0.111207        -2.471498
 C         2.923185        -1.550954        -3.039174
 O         1.779208        -2.450779        -3.022869
 C         0.591951        -1.615637        -2.971290
 C         0.991429        -0.329166        -2.161356
 H        -0.543969         0.825284         0.199419
 H        -0.196757        -0.840574         0.802758
 H         0.623404         0.692672         1.422258
 H         3.584358         0.655226        -0.391027
 H         2.914483         0.767127        -3.101485
 H         3.241451        -1.485349        -4.138992
 H         3.764075        -2.125870        -2.495303
 H         0.337503        -1.264811        -4.046820
 H        -0.227507        -2.318479        -2.676603
 H         0.385872         0.620694        -2.554297
