19
Iteration:  2819charge 0 multiplicity 1
 C         0.216027         0.125464         0.421145
 C         1.294235        -0.046794        -0.574813
 O         2.310732        -1.147192        -0.126551
 C         2.715742         0.011958        -0.892406
 C         2.478764        -0.210778        -2.450164
 C         2.920150        -1.534249        -3.079199
 O         1.773153        -2.421992        -3.074796
 C         0.619829        -1.650318        -2.956997
 C         0.949291        -0.313353        -2.213309
 H        -0.659807         0.444877        -0.089145
 H        -0.145344        -0.824943         0.701331
 H         0.557822         0.676222         1.339056
 H         3.466797         0.750975        -0.500332
 H         2.749357         0.685329        -3.118542
 H         3.325425        -1.315765        -4.116667
 H         3.730386        -2.012491        -2.396433
 H         0.135339        -1.386742        -4.022696
 H        -0.103488        -2.114577        -2.360208
 H         0.229710         0.492031        -2.483075
