19
Iteration:  2316
 C         0.469648         0.527847         0.474481
 C         1.196925        -0.206511        -0.596689
 O         1.958999        -1.353003        -0.247332
 C         2.592791        -0.148905        -0.870719
 C         2.366871        -0.141469        -2.423897
 C         2.928158        -1.291230        -3.326600
 O         2.100071        -2.337177        -2.936383
 C         0.744206        -1.836384        -2.765907
 C         0.844589        -0.436409        -2.274647
 H         0.385023         1.662519         0.100328
 H        -0.469287         0.160963         0.722516
 H         1.094301         0.426865         1.448473
 H         3.248818         0.255343        -0.264322
 H         2.570894         0.861153        -2.879309
 H         2.810415        -1.178132        -4.424488
 H         3.974663        -1.573381        -3.119632
 H         0.212573        -1.921531        -3.710515
 H         0.267253        -2.548410        -1.911069
 H         0.191395         0.157172        -2.832973
