19
Iteration:  2582charge 0 multiplicity 1
 C         0.309945         0.384811         0.423798
 C         1.218118        -0.176575        -0.633754
 O         2.053197        -1.285279        -0.284188
 C         2.644313        -0.109218        -0.959777
 C         2.461931        -0.066990        -2.438772
 C         2.917504        -1.323780        -3.182325
 O         1.992241        -2.436061        -3.050081
 C         0.710468        -1.816496        -2.659737
 C         0.963019        -0.372925        -2.157443
 H         0.042779         1.414820         0.134711
 H        -0.684304        -0.133294         0.381307
 H         0.715965         0.193579         1.377177
 H         3.457950         0.372777        -0.210024
 H         2.681545         0.857989        -2.940838
 H         2.934974        -0.968324        -4.256100
 H         3.901174        -1.734929        -2.935949
 H        -0.001618        -1.724818        -3.576545
 H         0.139625        -2.518138        -1.856010
 H         0.335890         0.419207        -2.695766
