19
Iteration:   141charge 0 multiplicity 1
 C         0.309914         0.322757         0.463712
 C         1.167924        -0.141179        -0.704067
 O         2.100243        -1.193700        -0.292986
 C         2.670330        -0.049992        -0.850959
 C         2.562861        -0.142731        -2.421526
 C         2.999872        -1.425926        -3.103082
 O         1.845302        -2.412709        -3.152502
 C         0.614491        -1.804955        -2.675566
 C         0.977006        -0.330109        -2.282471
 H        -0.026234         1.342173         0.473560
 H        -0.517643        -0.449723         0.669137
 H         0.925098         0.223252         1.352521
 H         3.301780         0.492542        -0.269620
 H         2.788783         0.815700        -2.886555
 H         3.501564        -1.315912        -4.073345
 H         3.737481        -1.960437        -2.490521
 H        -0.160625        -1.852852        -3.395367
 H         0.242489        -2.374150        -1.792845
 H         0.398187         0.517839        -2.805355
