19
Iteration:  1756charge 0 multiplicity 1
 C         0.287490         0.410449         0.399106
 C         1.235172        -0.090074        -0.620498
 O         2.057118        -1.346602        -0.345446
 C         2.629710        -0.133559        -0.917313
 C         2.512788        -0.117097        -2.379132
 C         3.009380        -1.389201        -3.143453
 O         1.855983        -2.272230        -3.305192
 C         0.726425        -1.879470        -2.456542
 C         0.906704        -0.354649        -2.163524
 H         0.056382         1.564656         0.152517
 H        -0.569305        -0.113847         0.182248
 H         0.603636         0.277398         1.342096
 H         3.474359         0.150211        -0.411257
 H         2.893089         0.858274        -2.865541
 H         3.507373        -1.314804        -4.116748
 H         3.846943        -1.870426        -2.534490
 H        -0.205806        -1.966654        -2.912281
 H         0.771143        -2.395616        -1.496187
 H         0.265264         0.225569        -2.788984
