19
Iteration:  4295charge 0 multiplicity 1
 C         0.425539         0.543056         0.386696
 C         1.141123        -0.223966        -0.567441
 O         1.694593        -1.451082        -0.112891
 C         2.639897        -0.467218        -0.571701
 C         2.685673        -0.388433        -2.077801
 C         3.082980        -1.587465        -2.987016
 O         1.864549        -1.916037        -3.758476
 C         0.679835        -1.509413        -2.975024
 C         1.076136        -0.269273        -2.267045
 H         0.935868         0.478833         1.413215
 H         0.178061         1.524664         0.176220
 H        -0.518051         0.056601         0.668017
 H         3.364168        -0.020757         0.164214
 H         3.117502         0.628217        -2.284338
 H         3.871093        -1.639111        -3.750097
 H         3.132908        -2.540649        -2.401003
 H        -0.069157        -1.333261        -3.782882
 H         0.348189        -2.268789        -2.129289
 H         0.854394         0.693540        -2.664639
