19
Iteration:  4974charge 0 multiplicity 1
 C         0.155009         0.309962         0.291903
 C         1.199718        -0.236352        -0.618219
 O         1.816411        -1.498151        -0.268850
 C         2.690478        -0.438746        -0.532887
 C         2.799956        -0.418303        -2.077612
 C         3.034813        -1.585082        -3.021271
 O         1.675763        -2.208749        -3.293801
 C         0.674280        -1.129790        -3.120823
 C         1.291123        -0.045484        -2.198859
 H         0.496439         0.669062         1.196158
 H        -0.500810         1.243928        -0.093505
 H        -0.529983        -0.461885         0.571775
 H         3.438562        -0.195446         0.109697
 H         3.582933         0.404094        -2.372339
 H         3.486027        -1.221174        -4.045553
 H         3.771769        -2.493907        -2.812391
 H         0.245831        -0.683662        -4.123160
 H        -0.218751        -1.522946        -2.674217
 H         1.145218         0.957784        -2.644493
