19
Iteration:   146
 C         0.309529         0.320047         0.467051
 C         1.198311        -0.106519        -0.696829
 O         2.056365        -1.221145        -0.341685
 C         2.665610        -0.058627        -0.896395
 C         2.567203        -0.123727        -2.399845
 C         3.002728        -1.442971        -3.090623
 O         1.840479        -2.369253        -3.115827
 C         0.635338        -1.805405        -2.694887
 C         0.988740        -0.375953        -2.247135
 H        -0.259233         1.313062         0.512202
 H        -0.450064        -0.399944         0.624022
 H         1.071269         0.309929         1.299239
 H         3.485398         0.529228        -0.194025
 H         2.695234         0.843462        -2.928045
 H         3.396053        -1.296665        -4.110513
 H         3.710049        -1.944774        -2.412205
 H        -0.224817        -1.963231        -3.452402
 H         0.295376        -2.341385        -1.802321
 H         0.469421         0.385072        -2.745721
