19
Iteration:  2992
 C         0.159148         0.490374         0.270445
 C         1.162053        -0.248153        -0.554912
 O         2.267970        -1.186140        -0.053100
 C         2.656564         0.092536        -0.759451
 C         2.606610        -0.282609        -2.327362
 C         2.977726        -1.612532        -3.140676
 O         1.678884        -2.035276        -3.692936
 C         0.771355        -1.937289        -2.576162
 C         1.008284        -0.543653        -2.081163
 H         0.246248         1.524669         0.014245
 H        -0.877275         0.142437         0.107708
 H         0.370054         0.308710         1.420609
 H         3.184742         0.673442        -0.101781
 H         2.604074         0.554901        -3.049356
 H         3.649080        -1.452699        -3.949829
 H         3.373717        -2.295332        -2.463991
 H        -0.143878        -2.085130        -3.021549
 H         0.990351        -2.703564        -1.686695
 H         0.304196         0.250751        -2.539212
