19
Iteration:   133
 C         0.315712         0.286793         0.454956
 C         1.145237        -0.185011        -0.705089
 O         2.162852        -1.178072        -0.205675
 C         2.619518        -0.016863        -0.831594
 C         2.508570        -0.188806        -2.441173
 C         2.998014        -1.465528        -3.104136
 O         1.869006        -2.441930        -3.223102
 C         0.619643        -1.761183        -2.643895
 C         0.960092        -0.264558        -2.287509
 H         0.181374         1.396500         0.220865
 H        -0.612677        -0.163210         0.522975
 H         0.815932         0.109325         1.447180
 H         3.410297         0.708393        -0.201258
 H         3.006032         0.664966        -2.922386
 H         3.349305        -1.282266        -4.108939
 H         3.768778        -1.924716        -2.569252
 H        -0.071890        -1.704558        -3.503664
 H         0.277615        -2.355197        -1.809187
 H         0.312016         0.479264        -2.744883
