19
Iteration:  4945charge 0 multiplicity 1
 C         0.169072         0.434440         0.206348
 C         1.237833        -0.348798        -0.582228
 O         1.802913        -1.515964        -0.133391
 C         2.699884        -0.468716        -0.569422
 C         2.809521        -0.355161        -2.197979
 C         3.033838        -1.573629        -2.987901
 O         1.694924        -2.125291        -3.397309
 C         0.662899        -1.154062        -3.142255
 C         1.233575        -0.186591        -2.075326
 H         0.612073         0.878762         1.170424
 H        -0.548360         1.144245        -0.307415
 H        -0.450086        -0.409375         0.562401
 H         3.592588        -0.231713         0.109134
 H         3.457504         0.550374        -2.386033
 H         3.540876        -1.335620        -3.878006
 H         3.573005        -2.368641        -2.577656
 H         0.498528        -0.430498        -3.950253
 H        -0.329485        -1.612561        -2.857290
 H         0.865860         0.764422        -2.434530
