19
Iteration:  3698charge 0 multiplicity 1
 C         0.295167         0.379713         0.440056
 C         1.188452        -0.216066        -0.640201
 O         1.995418        -1.329324        -0.136389
 C         2.716296        -0.171439        -0.695362
 C         2.658365        -0.288744        -2.238036
 C         2.930157        -1.747468        -2.920978
 O         1.777674        -1.939595        -3.685265
 C         0.624380        -1.626638        -2.891316
 C         1.103884        -0.302854        -2.173290
 H         0.867923         0.176714         1.417294
 H         0.110001         1.468623         0.403633
 H        -0.617489        -0.085424         0.482659
 H         3.425947         0.157135        -0.003655
 H         3.152969         0.547636        -2.702080
 H         3.726826        -1.647566        -3.631847
 H         3.159879        -2.488076        -2.171728
 H        -0.168343        -1.440797        -3.595767
 H         0.190256        -2.451805        -2.219146
 H         0.526703         0.627555        -2.646527
