19
Iteration:  4528charge 0 multiplicity 1
 C         0.216816         0.471267         0.247817
 C         1.237396        -0.243775        -0.599240
 O         1.667243        -1.591779        -0.329663
 C         2.740448        -0.594890        -0.607289
 C         2.761440        -0.308592        -2.134449
 C         2.964163        -1.419267        -3.124195
 O         1.755886        -2.268872        -3.186627
 C         0.786245        -1.208466        -2.998716
 C         1.236306        -0.094766        -2.115938
 H         0.762654         0.725480         1.131848
 H        -0.222336         1.430880        -0.341782
 H        -0.541872        -0.212535         0.558050
 H         3.501524        -0.447781         0.278801
 H         3.472943         0.596575        -2.301263
 H         3.128230        -1.018584        -4.131457
 H         3.784166        -2.126793        -3.055813
 H         0.591458        -0.731228        -3.990489
 H        -0.233336        -1.637725        -2.662913
 H         0.608708         0.826624        -2.462557
