19
Iteration:  3165charge 0 multiplicity 1
 C         0.187569         0.301896         0.336659
 C         1.286034        -0.257364        -0.672276
 O         2.149733        -1.335688        -0.235961
 C         2.698962        -0.073911        -0.844172
 C         2.600526        -0.174534        -2.358944
 C         2.931448        -1.459351        -3.180051
 O         1.848997        -2.273973        -3.025179
 C         0.568993        -1.619692        -2.818569
 C         1.018936        -0.326608        -2.108184
 H        -0.330297        -0.485273         0.682757
 H         0.765209         0.897993         1.046543
 H        -0.622226         0.853434        -0.292328
 H         3.421141         0.397948        -0.317517
 H         2.844815         0.736684        -2.888263
 H         3.079812        -1.178748        -4.208845
 H         3.803078        -2.100119        -2.814547
 H         0.109525        -1.487325        -3.950956
 H        -0.065649        -2.288414        -2.262636
 H         0.459603         0.589868        -2.285868
