19
Iteration:  1169charge 0 multiplicity 1
 C         0.323842         0.222176         0.387101
 C         1.239366        -0.202429        -0.662071
 O         2.206939        -1.163496        -0.386238
 C         2.638844         0.072229        -0.949067
 C         2.526588        -0.156657        -2.385853
 C         2.981098        -1.545286        -2.872127
 O         1.777685        -2.356834        -3.171894
 C         0.610000        -1.719546        -2.787626
 C         0.974643        -0.319201        -2.146391
 H        -0.078992         1.131956         0.278943
 H        -0.512263        -0.569689         0.427864
 H         0.810573         0.152967         1.259142
 H         3.506031         0.644809        -0.338649
 H         2.749937         0.703542        -2.999311
 H         3.518364        -1.463945        -3.770672
 H         3.496764        -2.146351        -2.098977
 H         0.008898        -1.529477        -3.675619
 H        -0.027773        -2.313209        -2.027789
 H         0.194588         0.374010        -2.367127
