19
Iteration:  1715
 C         0.267612         0.384828         0.379190
 C         1.236420        -0.179535        -0.614914
 O         2.231984        -1.173799        -0.049509
 C         2.636502        -0.015931        -0.858020
 C         2.506212        -0.253125        -2.335237
 C         2.996078        -1.512636        -3.149593
 O         1.788561        -2.212532        -3.478710
 C         0.634840        -1.861361        -2.679994
 C         0.960587        -0.442214        -2.155292
 H        -0.217556         1.417394         0.037699
 H        -0.581145        -0.355448         0.416240
 H         0.742984         0.677173         1.397332
 H         3.397277         0.779194        -0.471881
 H         2.642900         0.827902        -2.754209
 H         3.472121        -1.303838        -4.105356
 H         3.526962        -2.229304        -2.480737
 H        -0.138557        -2.047941        -3.441393
 H         0.508821        -2.570945        -1.874525
 H         0.410979         0.419109        -2.536090
