19
Iteration:  2397charge 0 multiplicity 1
 C         0.235424         0.294210         0.339724
 C         1.230151        -0.193071        -0.607079
 O         2.200677        -1.174940        -0.161625
 C         2.698495        -0.000709        -0.828277
 C         2.531970        -0.198484        -2.391429
 C         2.902751        -1.420838        -3.310214
 O         1.837457        -2.391126        -3.072942
 C         0.674344        -1.793613        -2.761004
 C         1.007191        -0.349674        -2.138443
 H        -0.338110         1.169630         0.096176
 H        -0.650281        -0.580915         0.349457
 H         0.673027         0.388757         1.304786
 H         3.455195         0.676634        -0.209277
 H         2.678785         0.731216        -2.921087
 H         2.895091        -1.129233        -4.415219
 H         3.862609        -1.897089        -3.067142
 H        -0.213188        -1.701882        -3.591683
 H         0.168570        -2.361088        -2.032032
 H         0.452511         0.574997        -2.617525
