19
Iteration:  3628
 C         0.145582         0.235128         0.323405
 C         1.191360        -0.196377        -0.601935
 O         2.150902        -1.325542        -0.141986
 C         2.726893        -0.178271        -0.745763
 C         2.690692        -0.322219        -2.257518
 C         2.930753        -1.697654        -2.962582
 O         1.723212        -2.158057        -3.492083
 C         0.639388        -1.462792        -2.878781
 C         1.097587        -0.119585        -2.157295
 H         0.121758        -0.456800         1.088187
 H         0.412573         1.074339         0.959088
 H        -0.901190         0.413869        -0.115294
 H         3.596748         0.447870        -0.214807
 H         3.189643         0.495672        -2.840812
 H         3.550718        -1.490714        -3.846308
 H         3.397934        -2.475983        -2.419060
 H        -0.117487        -1.155661        -3.607163
 H        -0.021317        -2.169931        -2.211767
 H         0.667142         0.827745        -2.514258
