19
Iteration:   661
 C         0.175199         0.264761         0.320314
 C         1.284349        -0.116073        -0.670596
 O         2.115522        -1.242197        -0.229242
 C         2.728312        -0.026692        -0.909375
 C         2.541025        -0.199659        -2.443008
 C         2.923702        -1.378406        -3.230961
 O         1.872208        -2.390111        -3.100524
 C         0.628520        -1.763141        -2.571468
 C         1.008936        -0.344797        -2.125685
 H        -0.259102         1.317617         0.180258
 H        -0.540233        -0.434280         0.324282
 H         0.643069         0.391502         1.265257
 H         3.567693         0.432847        -0.290322
 H         2.824412         0.776670        -2.913446
 H         3.008686        -1.084802        -4.238246
 H         3.816821        -1.857275        -2.860800
 H         0.037193        -1.858547        -3.514119
 H         0.191196        -2.357493        -1.723649
 H         0.378758         0.426441        -2.607413
