19
Iteration:  1543
 C         0.319707         0.441334         0.420618
 C         1.192874        -0.149600        -0.688986
 O         2.042557        -1.376249        -0.275658
 C         2.662735        -0.187122        -0.909648
 C         2.498035        -0.095763        -2.411283
 C         2.879890        -1.329946        -3.345336
 O         2.024936        -2.392879        -2.871383
 C         0.714858        -1.755376        -2.708328
 C         0.886021        -0.325836        -2.174527
 H         0.236442         1.488718         0.418822
 H        -0.751176         0.008105         0.287807
 H         0.750329         0.122678         1.478744
 H         3.582581         0.199257        -0.414654
 H         2.683679         0.823190        -2.785995
 H         3.000377        -1.133289        -4.448759
 H         3.902274        -1.692696        -3.133813
 H         0.248709        -1.850977        -3.750045
 H         0.151970        -2.390940        -2.046983
 H         0.216864         0.423632        -2.658930
