19
Iteration:  1077
 C         0.296867         0.523774         0.325856
 C         1.221330        -0.297555        -0.555395
 O         2.220155        -1.101558        -0.006032
 C         2.652046         0.038024        -0.821579
 C         2.434052        -0.300483        -2.398610
 C         2.980979        -1.580305        -3.058270
 O         1.759273        -2.086537        -3.733776
 C         0.670178        -1.950344        -2.579353
 C         0.999747        -0.581495        -2.083007
 H        -0.286369         1.172141        -0.453932
 H        -0.364845        -0.064389         0.815841
 H         0.800924         1.180882         1.164850
 H         3.280098         0.758963        -0.467068
 H         2.692037         0.634316        -2.970808
 H         3.744232        -1.389936        -3.882380
 H         3.330045        -2.143953        -2.144346
 H        -0.295792        -2.176662        -3.149340
 H         0.959154        -2.680092        -1.824987
 H         0.356008         0.373734        -2.443703
