19
Iteration:   961charge 0 multiplicity 1
 C         0.193866         0.268285         0.380230
 C         1.249798        -0.148118        -0.646914
 O         2.259001        -1.164180        -0.184485
 C         2.773265        -0.003310        -0.904892
 C         2.463769        -0.153163        -2.433857
 C         2.991827        -1.464238        -3.104043
 O         1.759456        -2.387126        -3.282616
 C         0.622595        -1.777336        -2.628113
 C         0.972845        -0.351849        -2.156975
 H        -0.379815         1.109816         0.008389
 H        -0.573158        -0.640454         0.474254
 H         0.537572         0.423951         1.436059
 H         3.621456         0.546409        -0.486399
 H         2.701558         0.754485        -3.002442
 H         3.249539        -1.408207        -4.147676
 H         3.669985        -1.997131        -2.445302
 H        -0.174537        -1.708163        -3.304824
 H         0.339437        -2.262006        -1.698868
 H         0.451814         0.431346        -2.654568
