19
Iteration:  4106charge 0 multiplicity 1
 C         0.247929         0.403295         0.465095
 C         1.199609        -0.116862        -0.573209
 O         1.805814        -1.474652        -0.195159
 C         2.675907        -0.412841        -0.595234
 C         2.761697        -0.442968        -2.197972
 C         2.957277        -1.744427        -2.921418
 O         1.829779        -1.877011        -3.730988
 C         0.638158        -1.413999        -2.965397
 C         1.198062        -0.180139        -2.187735
 H         0.702100         0.824337         1.276646
 H        -0.343624         1.230350        -0.052172
 H        -0.428708        -0.430836         0.890010
 H         3.309355         0.066311         0.127484
 H         3.292780         0.340344        -2.646947
 H         3.865370        -1.668729        -3.599269
 H         3.115630        -2.578655        -2.128482
 H        -0.059735        -0.988675        -3.685410
 H         0.309978        -2.199373        -2.343415
 H         0.864421         0.801171        -2.554029
