19
Iteration:  1400charge 0 multiplicity 1
 C         0.199251         0.289084         0.361246
 C         1.235580        -0.134954        -0.665828
 O         2.289697        -1.053142        -0.151559
 C         2.728172         0.037503        -0.886067
 C         2.558611        -0.258548        -2.367530
 C         2.870401        -1.665493        -2.806408
 O         1.684011        -2.061581        -3.602852
 C         0.726785        -1.923500        -2.680337
 C         1.001182        -0.400947        -2.144850
 H        -0.443061         1.125589         0.144882
 H        -0.502152        -0.688805         0.375223
 H         0.575246         0.129910         1.414829
 H         3.497525         0.638637        -0.543228
 H         2.760251         0.544632        -3.057360
 H         3.736688        -1.638314        -3.478136
 H         2.916971        -2.456978        -2.010898
 H        -0.179986        -2.047110        -3.224694
 H         0.722640        -2.564488        -1.852389
 H         0.450215         0.366612        -2.660950
