19
Iteration:  4733
 C         0.301097         0.375448         0.419205
 C         1.172135        -0.324170        -0.664570
 O         1.635154        -1.580568        -0.407756
 C         2.671143        -0.423071        -0.686065
 C         2.725322        -0.248213        -2.242965
 C         3.077199        -1.620232        -2.883178
 O         1.770362        -2.120820        -3.220399
 C         0.700342        -1.181911        -3.077712
 C         1.245267        -0.089195        -2.161822
 H         1.088689         0.651804         1.141352
 H        -0.252343         1.258756         0.042209
 H        -0.344242        -0.379138         0.849563
 H         3.333688        -0.458628         0.298596
 H         3.279561         0.740491        -2.538349
 H         3.780428        -1.534199        -3.809121
 H         3.637327        -2.360734        -2.205963
 H         0.479733        -0.808279        -4.056105
 H        -0.151069        -1.708840        -2.658775
 H         0.879441         0.820442        -2.681234
