19
Iteration:  2625
 C         0.435408         0.513019         0.455191
 C         1.148992        -0.247136        -0.653630
 O         1.965682        -1.309334        -0.171016
 C         2.571408        -0.137869        -0.858403
 C         2.412435        -0.167131        -2.417917
 C         2.961900        -1.256202        -3.210396
 O         2.001136        -2.389375        -3.161763
 C         0.748994        -1.907259        -2.732237
 C         0.968440        -0.399684        -2.234658
 H        -0.034031         1.402131        -0.087151
 H        -0.192541        -0.052056         1.089657
 H         1.207369         0.731309         1.142935
 H         3.344085         0.627159        -0.332533
 H         2.696629         0.799817        -2.847177
 H         3.082542        -0.915081        -4.290184
 H         3.983356        -1.395090        -2.805939
 H        -0.030931        -1.755905        -3.537325
 H         0.233252        -2.474257        -1.841821
 H         0.216737         0.294520        -2.567370
