19
Iteration:  3746
 C         0.231435         0.616554         0.328107
 C         1.239287        -0.208643        -0.503272
 O         1.882620        -1.464729        -0.160848
 C         2.730309        -0.414684        -0.716110
 C         2.714630        -0.392035        -2.192881
 C         3.004262        -1.515649        -3.132354
 O         1.724122        -1.904321        -3.668144
 C         0.756795        -1.634650        -2.733288
 C         1.050980        -0.354725        -2.104766
 H         0.608594         1.472100         0.807002
 H        -0.492200         1.023570        -0.398439
 H        -0.425894        -0.105933         0.999129
 H         3.576891        -0.032111        -0.027023
 H         3.136784         0.601553        -2.558235
 H         3.741215        -1.329058        -3.991923
 H         3.391143        -2.363894        -2.416958
 H        -0.291935        -1.703501        -3.198284
 H         0.719416        -2.424854        -2.034590
 H         0.536921         0.485410        -2.500739
