19
Iteration:  3273
 C         0.234854         0.377900         0.296574
 C         1.220963        -0.199774        -0.583630
 O         2.112271        -1.360399        -0.209870
 C         2.709571        -0.229803        -0.812745
 C         2.585444        -0.225322        -2.354705
 C         3.019739        -1.397654        -3.166627
 O         1.847264        -2.283322        -3.147571
 C         0.579566        -1.650607        -2.818061
 C         0.958123        -0.294457        -2.140804
 H         0.593587         0.202551         1.343981
 H         0.144924         1.501736         0.210866
 H        -0.901892         0.091398         0.082275
 H         3.448549         0.148194        -0.211009
 H         2.904960         0.727071        -2.697731
 H         3.228674        -0.988589        -4.209802
 H         3.920164        -1.843539        -2.711400
 H         0.050712        -1.482792        -3.731647
 H         0.057664        -2.350166        -2.186150
 H         0.451637         0.591810        -2.433386
