19
Iteration:  4903
 C         0.220957         0.420683         0.442846
 C         1.143981        -0.215982        -0.635366
 O         1.796395        -1.584139        -0.298927
 C         2.583997        -0.410858        -0.649688
 C         2.830607        -0.303114        -2.105428
 C         3.075868        -1.620814        -2.934986
 O         1.723770        -2.180382        -3.426603
 C         0.709465        -1.193937        -3.117983
 C         1.206913        -0.143393        -2.196767
 H         0.918314         0.527550         1.377373
 H         0.062145         1.422113         0.219956
 H        -0.760263        -0.038492         0.724430
 H         3.409169        -0.175536         0.189497
 H         3.362032         0.514346        -2.521767
 H         3.747755        -1.542173        -3.848637
 H         3.548782        -2.362660        -2.316956
 H         0.325170        -0.810602        -4.018162
 H        -0.145985        -1.741771        -2.608136
 H         0.882684         0.907578        -2.458229
