19
Iteration:  3335
 C         0.211503         0.290300         0.440635
 C         1.256117        -0.114674        -0.614184
 O         2.033431        -1.286682        -0.200926
 C         2.714586        -0.255745        -0.801893
 C         2.562006        -0.197362        -2.354160
 C         3.005552        -1.451060        -3.097693
 O         1.811478        -2.330535        -3.328537
 C         0.645452        -1.627785        -2.812636
 C         1.064082        -0.230781        -2.169264
 H         0.527019         1.219412         1.130760
 H        -0.599613         0.656830        -0.132654
 H        -0.071289        -0.512585         0.999872
 H         3.386262         0.248839        -0.164295
 H         2.980208         0.740831        -2.747477
 H         3.486265        -1.328547        -4.055883
 H         3.682950        -2.037970        -2.509523
 H        -0.059694        -1.659372        -3.690087
 H         0.032426        -2.161914        -2.009217
 H         0.554160         0.622878        -2.670263
