19
Iteration:  1436charge 0 multiplicity 1
 C         0.196302         0.287562         0.377355
 C         1.212101        -0.140656        -0.627245
 O         2.177599        -1.164460        -0.204290
 C         2.669407         0.061686        -0.850149
 C         2.559405        -0.212449        -2.341501
 C         2.989124        -1.593490        -3.063166
 O         1.719282        -2.275469        -3.419905
 C         0.691914        -1.779532        -2.662175
 C         1.046527        -0.382272        -2.145857
 H        -0.389545         1.097413         0.056086
 H        -0.499290        -0.595600         0.477399
 H         0.733290         0.622793         1.358802
 H         3.443318         0.630904        -0.291168
 H         3.000199         0.702524        -3.014014
 H         3.448191        -1.343560        -4.047151
 H         3.626908        -2.315002        -2.469409
 H        -0.193070        -1.934273        -3.314019
 H         0.561332        -2.334899        -1.681046
 H         0.488666         0.494025        -2.569920
