19
Iteration:   447
 C         0.344961         0.569679         0.441494
 C         1.153875        -0.093570        -0.644757
 O         2.092028        -1.206110        -0.039834
 C         2.661721        -0.122087        -0.853458
 C         2.437747        -0.192220        -2.426449
 C         3.024186        -1.442977        -3.115444
 O         1.855399        -2.221540        -3.567813
 C         0.778064        -2.033785        -2.608777
 C         0.886936        -0.499394        -2.176480
 H        -0.076432         1.494421         0.070221
 H        -0.572503        -0.126953         0.884773
 H         1.022593         0.887173         1.296161
 H         3.421749         0.438200        -0.299638
 H         2.537482         0.832416        -2.911501
 H         3.522259        -1.177027        -4.087298
 H         3.708058        -2.051297        -2.405000
 H        -0.274166        -2.298702        -3.000323
 H         0.901189        -2.673987        -1.718398
 H         0.148428         0.162986        -2.738499
