19
Iteration:  1557
 C         0.264245         0.419866         0.364735
 C         1.240418        -0.154939        -0.586335
 O         2.121878        -1.341591        -0.374470
 C         2.672360        -0.166235        -0.874074
 C         2.429407        -0.201952        -2.445333
 C         2.935857        -1.340282        -3.194792
 O         1.956213        -2.321609        -2.980617
 C         0.690002        -1.798479        -2.644955
 C         0.941525        -0.324450        -2.207628
 H         0.211272         1.510795         0.164993
 H        -0.733709        -0.003222         0.250806
 H         0.558736         0.165051         1.433098
 H         3.553291         0.306850        -0.220703
 H         2.889528         0.780132        -2.843241
 H         2.682107        -1.048298        -4.212385
 H         3.917417        -1.747286        -2.896197
 H         0.030249        -1.646853        -3.522586
 H         0.257342        -2.475360        -1.941251
 H         0.252939         0.430576        -2.694010
