19
Iteration:  1153
 C         0.267050         0.128526         0.431098
 C         1.209863        -0.112447        -0.697323
 O         2.237887        -1.188317        -0.317360
 C         2.710766         0.081671        -0.877817
 C         2.551426        -0.161927        -2.429695
 C         2.984873        -1.584255        -2.877848
 O         1.787314        -2.342314        -3.265036
 C         0.546245        -1.687383        -2.665644
 C         0.927230        -0.306452        -2.259081
 H        -0.444689         1.062050         0.186757
 H        -0.376816        -0.692524         0.547713
 H         0.840261         0.554006         1.379851
 H         3.355119         0.664462        -0.351793
 H         2.988713         0.541183        -3.182545
 H         3.678355        -1.558547        -3.791748
 H         3.564832        -2.070685        -2.073062
 H        -0.293714        -1.736410        -3.407462
 H         0.262049        -2.303007        -1.860598
 H         0.602904         0.610740        -2.847510
