19
Iteration:  2170
 C         0.260809         0.108951         0.424275
 C         1.217523        -0.225308        -0.693860
 O         2.338102        -1.138783        -0.358331
 C         2.621903         0.084798        -0.927149
 C         2.512198        -0.106105        -2.458974
 C         2.927960        -1.517416        -2.817946
 O         1.774733        -2.384197        -3.067514
 C         0.560999        -1.700705        -2.866895
 C         0.990163        -0.334428        -2.239502
 H         0.264833         1.189410         0.495043
 H        -0.773565        -0.414328         0.688482
 H         0.879824        -0.027645         1.268079
 H         3.350766         0.866971        -0.376650
 H         2.863929         0.738266        -3.080680
 H         3.608586        -1.547587        -3.708458
 H         3.545759        -2.018704        -2.045457
 H         0.072143        -1.573171        -3.883372
 H        -0.164489        -2.239578        -2.091588
 H         0.400070         0.547534        -2.722972
