19
Iteration:  3464charge 0 multiplicity 1
 C         0.181027         0.401437         0.245651
 C         1.254510        -0.210444        -0.587094
 O         2.059100        -1.281489        -0.027239
 C         2.801104        -0.205344        -0.738717
 C         2.570169        -0.302060        -2.299815
 C         2.960638        -1.627011        -3.043006
 O         1.699136        -1.905502        -3.696891
 C         0.687706        -1.779724        -2.706490
 C         1.102853        -0.331889        -2.076389
 H        -0.517215         0.990946        -0.413845
 H        -0.417891        -0.341012         0.744778
 H         0.686376         1.131827         1.018907
 H         3.534728         0.308517        -0.228119
 H         2.981571         0.645966        -2.709471
 H         3.849061        -1.817713        -3.676746
 H         2.933861        -2.354369        -2.170253
 H        -0.219772        -1.833710        -3.145002
 H         0.860136        -2.616510        -2.033778
 H         0.427401         0.421210        -2.568138
