19
Iteration:   476charge 0 multiplicity 1
 C         0.272834         0.458401         0.391926
 C         1.218597        -0.149955        -0.653037
 O         2.068461        -1.271284        -0.253248
 C         2.681926        -0.058216        -0.855221
 C         2.509095        -0.175670        -2.429004
 C         3.022305        -1.421010        -3.138421
 O         1.842072        -2.300697        -3.357786
 C         0.723142        -1.899964        -2.545019
 C         0.938162        -0.403693        -2.089560
 H        -0.496182         1.027688        -0.131079
 H        -0.301354        -0.280505         0.921884
 H         0.845218         1.166540         0.885146
 H         3.400155         0.486116        -0.334720
 H         2.574620         0.782879        -2.905479
 H         3.273272        -1.131488        -4.103793
 H         3.777004        -2.020453        -2.678759
 H        -0.184653        -2.009243        -3.091411
 H         0.778420        -2.551312        -1.648799
 H         0.321543         0.350845        -2.549630
