19
Iteration:  3297
 C         0.238768         0.323866         0.283761
 C         1.221848        -0.266728        -0.600131
 O         2.085722        -1.327693        -0.147421
 C         2.712275        -0.162758        -0.718207
 C         2.640770        -0.146003        -2.289955
 C         2.922306        -1.453869        -3.213996
 O         1.776390        -2.360296        -3.274567
 C         0.626511        -1.609470        -2.772088
 C         1.101171        -0.273875        -2.179213
 H         0.685009         0.707873         1.138413
 H        -0.266501         1.177563        -0.290931
 H        -0.766991        -0.375441         0.462935
 H         3.279525         0.567012        -0.055426
 H         2.861765         0.882742        -2.664220
 H         3.074141        -1.043989        -4.270445
 H         3.864959        -1.982028        -2.814240
 H        -0.069465        -1.403314        -3.514425
 H         0.260768        -2.268770        -2.027764
 H         0.670569         0.670751        -2.557781
