19
Iteration:   206
 C         0.327218         0.337949         0.319598
 C         1.219785        -0.261147        -0.653707
 O         2.145098        -1.265396        -0.275153
 C         2.697531        -0.047215        -0.830955
 C         2.563963        -0.222935        -2.334304
 C         2.917950        -1.369392        -3.221043
 O         1.877306        -2.380071        -2.951396
 C         0.593038        -1.684652        -2.800378
 C         0.911682        -0.346575        -2.148221
 H        -0.520850         0.647878        -0.251807
 H         0.131856        -0.416660         1.195115
 H         0.739735         1.218031         0.803440
 H         3.187318         0.566771        -0.261428
 H         2.794133         0.711138        -2.848801
 H         2.941547        -1.055849        -4.329096
 H         3.913713        -1.940492        -3.104745
 H         0.286805        -1.554579        -3.874620
 H        -0.055477        -2.389039        -2.226854
 H         0.400904         0.531374        -2.662255
