19
Iteration:  4851
 C         0.206415         0.359303         0.337830
 C         1.210344        -0.267429        -0.651600
 O         1.729883        -1.539280        -0.452784
 C         2.619631        -0.479653        -0.618159
 C         2.788188        -0.299331        -2.156578
 C         3.058878        -1.574063        -2.977991
 O         1.755128        -2.134679        -3.279693
 C         0.675765        -1.229053        -2.894337
 C         1.271362        -0.059056        -2.222475
 H         0.274046        -0.207695         1.358145
 H         0.524528         1.332863         0.580597
 H        -0.874801         0.455751        -0.016003
 H         3.351603        -0.249958         0.301122
 H         3.332454         0.486835        -2.548363
 H         3.592571        -1.612040        -3.972319
 H         3.756800        -2.130431        -2.249232
 H         0.136239        -1.012421        -3.942279
 H         0.020114        -1.807928        -2.225291
 H         1.093668         0.983382        -2.604273
