19
Iteration:   347charge 0 multiplicity 1
 C         0.222601         0.230426         0.377269
 C         1.182710        -0.114799        -0.698348
 O         2.246330        -1.095641        -0.188167
 C         2.659897         0.040059        -0.861843
 C         2.504819        -0.247430        -2.400358
 C         2.948201        -1.578941        -3.010195
 O         1.768518        -2.251650        -3.396411
 C         0.679635        -1.784931        -2.598903
 C         1.038475        -0.417793        -2.195978
 H         0.187803         1.247084         0.339286
 H        -0.830244        -0.318741         0.437671
 H         0.564994        -0.057327         1.339887
 H         3.265894         0.781684        -0.562263
 H         2.833856         0.677381        -2.883698
 H         3.548507        -1.370948        -3.842582
 H         3.669441        -2.252537        -2.390068
 H        -0.197098        -1.737128        -3.253209
 H         0.410707        -2.390254        -1.683774
 H         0.424156         0.336152        -2.723459
