19
Iteration:   881charge 0 multiplicity 1
 C         0.379386         0.037775         0.449832
 C         1.228791        -0.262928        -0.655182
 O         2.332823        -1.137891        -0.338166
 C         2.609029         0.176017        -0.950940
 C         2.447258        -0.162992        -2.488560
 C         2.903410        -1.539634        -2.924163
 O         1.755047        -2.423263        -2.825697
 C         0.601254        -1.551189        -3.056573
 C         0.928728        -0.360391        -2.193084
 H        -0.570150         0.703303         0.122314
 H        -0.021112        -0.798091         1.003212
 H         1.114209         0.677400         1.173213
 H         3.434646         0.554341        -0.461655
 H         2.757676         0.670142        -3.175692
 H         3.522496        -1.627757        -3.866873
 H         3.710279        -1.906903        -2.292870
 H         0.460756        -1.337876        -4.117026
 H        -0.387734        -1.788735        -2.735599
 H         0.347985         0.661087        -2.421728
