19
Iteration:  1019
 C         0.408132         0.601266         0.401904
 C         1.184128        -0.205987        -0.606111
 O         2.061367        -1.236753        -0.138997
 C         2.609151        -0.021300        -0.882683
 C         2.399094        -0.194307        -2.369273
 C         2.932388        -1.470773        -3.165402
 O         1.857265        -2.216036        -3.583090
 C         0.850469        -2.010059        -2.512157
 C         0.875893        -0.484730        -2.092786
 H         0.416688         1.668947         0.229503
 H        -0.721378         0.282356         0.350453
 H         0.814919         0.392211         1.377662
 H         3.484727         0.650776        -0.429387
 H         2.822239         0.711169        -2.822202
 H         3.535719        -1.296866        -4.062067
 H         3.657020        -2.056284        -2.524327
 H        -0.046624        -2.319694        -2.928692
 H         1.026236        -2.651437        -1.635849
 H         0.142667         0.165901        -2.523147
