19
Iteration:   696
 C         0.238000         0.540239         0.342066
 C         1.235362        -0.151299        -0.645218
 O         2.110184        -1.375932        -0.150894
 C         2.678983        -0.124832        -0.821063
 C         2.481793        -0.203895        -2.421771
 C         2.932354        -1.291768        -3.298280
 O         1.935595        -2.316769        -3.196800
 C         0.679817        -1.913986        -2.601941
 C         0.942127        -0.442535        -2.176534
 H        -0.360794         1.269617        -0.292537
 H        -0.361911         0.061623         0.953731
 H         0.980263         1.042856         1.050831
 H         3.431641         0.434849        -0.192508
 H         2.754275         0.904930        -2.799649
 H         3.098667        -0.959571        -4.302271
 H         3.929106        -1.622676        -2.999801
 H        -0.207697        -1.987666        -3.360019
 H         0.370639        -2.632029        -1.749787
 H         0.323646         0.486190        -2.497383
