19
Iteration:  1219
 C         0.320862         0.301178         0.385227
 C         1.213484        -0.282599        -0.657485
 O         2.195282        -1.225105        -0.211400
 C         2.679447         0.053259        -0.809568
 C         2.501969        -0.205444        -2.438135
 C         2.842589        -1.437068        -3.187283
 O         1.884243        -2.404173        -2.915628
 C         0.656085        -1.678312        -2.954295
 C         0.963627        -0.413166        -2.149592
 H         0.498409         1.524989         0.377571
 H        -0.724498         0.101512         0.230399
 H         0.706714         0.075493         1.521661
 H         3.261009         0.684665        -0.225781
 H         2.613662         0.771593        -2.923151
 H         2.760507        -1.196419        -4.327066
 H         3.840095        -1.849792        -2.957945
 H         0.378474        -1.329993        -3.991102
 H        -0.101503        -2.344778        -2.597853
 H         0.312902         0.436815        -2.553982
