19
Iteration:  2708charge 0 multiplicity 1
 C         0.227912         0.228940         0.392831
 C         1.189728        -0.198087        -0.658521
 O         2.129866        -1.224604        -0.253489
 C         2.722352        -0.023707        -0.889842
 C         2.560662        -0.136451        -2.365292
 C         2.862026        -1.403307        -3.198872
 O         1.896345        -2.384724        -2.986763
 C         0.630171        -1.739140        -2.712250
 C         1.060738        -0.315156        -2.289810
 H        -0.079915         1.271850         0.432300
 H        -0.629219        -0.406552         0.170592
 H         0.606408         0.162095         1.508499
 H         3.550970         0.477621        -0.256287
 H         2.662240         0.801548        -3.004299
 H         2.871243        -1.213479        -4.299794
 H         3.876315        -1.888091        -2.980520
 H        -0.046450        -1.841209        -3.625238
 H         0.183651        -2.238049        -1.888935
 H         0.496812         0.535076        -2.771323
