19
Iteration:  3065
 C         0.323397         0.332391         0.397591
 C         1.140798        -0.269656        -0.675998
 O         2.159901        -1.261751        -0.339286
 C         2.620100         0.068164        -0.846554
 C         2.523975        -0.186147        -2.381276
 C         3.026291        -1.562596        -2.908020
 O         1.835471        -2.181806        -3.371522
 C         0.567353        -1.755151        -2.677355
 C         0.991639        -0.386452        -2.174861
 H        -0.620391         0.715401         0.056672
 H         0.295738        -0.415066         1.218923
 H         0.961095         1.146947         0.923362
 H         3.423613         0.531515        -0.153557
 H         2.750067         0.693675        -2.983929
 H         3.726567        -1.526393        -3.744072
 H         3.552525        -2.135239        -1.995474
 H        -0.239237        -1.878812        -3.486459
 H         0.445091        -2.436505        -1.875070
 H         0.401911         0.389920        -2.631293
