19
Iteration:  1550charge 0 multiplicity 1
 C         0.284739         0.424079         0.397621
 C         1.225416        -0.133843        -0.637589
 O         2.094445        -1.381714        -0.318152
 C         2.664234        -0.162245        -0.886101
 C         2.461797        -0.154878        -2.407571
 C         2.887641        -1.357295        -3.282578
 O         2.006103        -2.335058        -2.925328
 C         0.728543        -1.789609        -2.660299
 C         0.865420        -0.325408        -2.223830
 H         0.215485         1.578448         0.429369
 H        -0.701100         0.027523         0.253378
 H         0.639000         0.230560         1.341895
 H         3.515882         0.126678        -0.406348
 H         2.859678         0.868358        -2.824908
 H         2.919460        -1.102042        -4.395868
 H         3.896797        -1.738558        -3.056768
 H         0.224205        -1.689550        -3.634501
 H         0.056975        -2.448071        -1.974141
 H         0.303902         0.467794        -2.650966
