19
Iteration:   392charge 0 multiplicity 1
 C         0.257268         0.532144         0.263446
 C         1.227448        -0.189602        -0.577579
 O         2.300600        -1.084850        -0.060073
 C         2.678003        -0.048042        -0.878154
 C         2.466744        -0.241402        -2.332901
 C         2.840186        -1.537595        -3.030588
 O         1.771762        -2.094095        -3.674120
 C         0.795153        -2.025781        -2.618832
 C         0.945654        -0.557516        -2.024364
 H         0.195156         1.581283         0.290516
 H        -0.798622         0.042478        -0.104334
 H         0.142651         0.057671         1.278629
 H         3.286327         0.635846        -0.425938
 H         2.561868         0.704226        -2.926237
 H         3.741484        -1.480978        -3.640429
 H         3.249173        -2.229408        -2.192209
 H        -0.275864        -2.067848        -3.006053
 H         0.989801        -2.783198        -1.835330
 H         0.181520         0.099382        -2.542657
