19
Iteration:  3620
 C         0.075934         0.232838         0.381252
 C         1.251756        -0.163232        -0.603410
 O         2.117665        -1.320148        -0.172535
 C         2.719746        -0.151008        -0.707721
 C         2.695280        -0.336960        -2.315279
 C         2.945322        -1.682474        -3.042808
 O         1.693077        -2.180156        -3.470788
 C         0.661151        -1.452446        -2.876576
 C         1.123527        -0.158293        -2.101631
 H        -0.151185        -0.628246         1.083245
 H         0.463492         1.178580         0.719346
 H        -0.821841         0.499372        -0.036373
 H         3.610928         0.259644        -0.090352
 H         3.279711         0.437192        -2.806673
 H         3.589892        -1.494224        -3.889222
 H         3.456263        -2.353341        -2.359475
 H         0.018106        -1.287430        -3.699403
 H         0.221205        -2.012658        -2.070882
 H         0.634590         0.816879        -2.595903
