19
Iteration:  1764charge 0 multiplicity 1
 C         0.288957         0.422772         0.376325
 C         1.216033        -0.121295        -0.610255
 O         2.054481        -1.317711        -0.338766
 C         2.667301        -0.201453        -0.922204
 C         2.480695        -0.163662        -2.445533
 C         3.052096        -1.335700        -3.069659
 O         1.876499        -2.281541        -3.300148
 C         0.725298        -1.812378        -2.435380
 C         0.891902        -0.361620        -2.192422
 H         0.125701         1.459967         0.306316
 H        -0.659880        -0.138903         0.230989
 H         0.703819         0.292645         1.364495
 H         3.545859         0.195607        -0.532967
 H         2.834026         0.678221        -2.930550
 H         3.256730        -1.092559        -4.128794
 H         3.757556        -1.878186        -2.483805
 H        -0.190051        -2.000767        -3.079338
 H         0.656861        -2.482001        -1.502738
 H         0.154541         0.305104        -2.666544
