19
Iteration:   364charge 0 multiplicity 1
 C         0.179668         0.344032         0.313778
 C         1.249525        -0.232560        -0.570993
 O         2.253620        -1.094816        -0.112240
 C         2.650632         0.099066        -0.911996
 C         2.578580        -0.263196        -2.410294
 C         3.009376        -1.592458        -3.068012
 O         1.733547        -2.174209        -3.501150
 C         0.653817        -1.892676        -2.614353
 C         0.975658        -0.441482        -2.062737
 H         0.007445         1.520313         0.386576
 H        -0.767264         0.013589        -0.036411
 H         0.311612        -0.053526         1.359561
 H         3.402867         0.781575        -0.273128
 H         2.709733         0.540904        -3.134426
 H         3.673197        -1.494202        -4.020354
 H         3.492622        -2.210747        -2.362330
 H        -0.276725        -1.923546        -3.200493
 H         0.683377        -2.581558        -1.757191
 H         0.354642         0.341711        -2.486312
