19
Iteration:   933
 C         0.317613         0.156082         0.413462
 C         1.232935        -0.249250        -0.680213
 O         2.293844        -1.099897        -0.244574
 C         2.658979         0.122736        -0.920935
 C         2.561871        -0.186541        -2.425571
 C         2.999094        -1.531459        -2.990883
 O         1.730562        -2.401387        -3.149526
 C         0.525592        -1.673558        -2.818009
 C         0.956529        -0.370273        -2.134416
 H        -0.480223         0.707952        -0.085008
 H        -0.118559        -0.738350         0.838618
 H         0.691299         0.610586         1.287660
 H         3.226477         1.026578        -0.354995
 H         2.847248         0.612362        -3.109502
 H         3.260634        -1.405150        -4.050872
 H         3.774189        -2.127480        -2.416431
 H        -0.113948        -1.368488        -3.786843
 H        -0.067988        -2.237230        -2.033557
 H         0.513223         0.597063        -2.530418
