19
Iteration:  2411charge 0 multiplicity 1
 C         0.242847         0.223823         0.362720
 C         1.247414        -0.241044        -0.642776
 O         2.246629        -1.116341        -0.184558
 C         2.662470         0.086776        -0.856311
 C         2.541963        -0.230789        -2.319264
 C         2.868696        -1.461030        -3.168993
 O         1.862847        -2.433344        -3.150262
 C         0.561778        -1.687749        -2.773552
 C         0.999858        -0.378924        -2.176713
 H        -0.255876         1.010537        -0.161221
 H        -0.446791        -0.601399         0.760212
 H         0.741708         0.583261         1.296240
 H         3.376716         0.769445        -0.340005
 H         2.933853         0.624485        -2.885589
 H         2.937176        -0.970791        -4.216553
 H         3.811601        -2.002458        -2.979440
 H         0.059581        -1.641595        -3.809431
 H         0.088649        -2.344330        -2.101661
 H         0.455716         0.502712        -2.526514
