19
Iteration:  1263
 C         0.248508         0.348368         0.331286
 C         1.265094        -0.153403        -0.647779
 O         2.058841        -1.337706        -0.324900
 C         2.715460        -0.148402        -0.863668
 C         2.491499        -0.169998        -2.424261
 C         2.986850        -1.310473        -3.292391
 O         1.895541        -2.361508        -2.942292
 C         0.637158        -1.734619        -2.622955
 C         0.965317        -0.333012        -2.172589
 H        -0.120488         1.483636         0.043752
 H        -0.581305        -0.357630         0.368011
 H         0.723019         0.401653         1.448734
 H         3.571740         0.159572        -0.342863
 H         2.883138         0.733068        -2.966731
 H         3.020613        -0.953335        -4.373178
 H         3.941178        -1.741544        -2.923942
 H         0.005128        -1.869477        -3.518475
 H         0.214574        -2.266101        -1.788157
 H         0.303811         0.480497        -2.584848
