19
Iteration:  1651charge 0 multiplicity 1
 C         0.295441         0.264198         0.402465
 C         1.157754        -0.217301        -0.645332
 O         2.321886        -1.061655        -0.124980
 C         2.625010         0.090720        -0.915425
 C         2.527529        -0.268004        -2.324086
 C         2.921057        -1.696615        -2.779663
 O         1.762140        -2.057425        -3.659836
 C         0.644766        -1.854032        -2.727589
 C         0.961545        -0.442006        -2.197663
 H        -0.456328         0.816238         0.064942
 H        -0.146032        -0.517520         1.117229
 H         0.976796         0.894392         1.123125
 H         3.532046         0.798043        -0.641769
 H         2.895853         0.423687        -3.035825
 H         3.821900        -1.699160        -3.407451
 H         2.881439        -2.378079        -1.938495
 H        -0.353817        -1.885334        -3.295452
 H         0.571221        -2.558479        -1.820764
 H         0.287007         0.373724        -2.605188
