19
Iteration:  3243
 C         0.325696         0.393912         0.478360
 C         1.226023        -0.205177        -0.604766
 O         1.996864        -1.421838        -0.334616
 C         2.601108        -0.147972        -0.817751
 C         2.529891        -0.127295        -2.395631
 C         2.932362        -1.400358        -3.104265
 O         1.893364        -2.380254        -3.038636
 C         0.739686        -1.668329        -2.866639
 C         0.987797        -0.235348        -2.235956
 H         0.585166        -0.159980         1.267571
 H         0.727667         1.405562         0.798593
 H        -0.759139         0.456570         0.044713
 H         3.431087         0.129017        -0.105234
 H         2.915635         0.786294        -2.941123
 H         3.090279        -1.228930        -4.189367
 H         3.971312        -1.781136        -2.725303
 H         0.221057        -1.542486        -3.882530
 H         0.041844        -2.296920        -2.331648
 H         0.365459         0.613012        -2.626112
