19
Iteration:  4488charge 0 multiplicity 1
 C         0.258992         0.394119         0.240101
 C         1.208385        -0.236367        -0.690143
 O         1.748396        -1.510417        -0.150927
 C         2.687818        -0.524655        -0.575639
 C         2.788969        -0.361315        -2.103825
 C         3.039856        -1.537326        -3.045615
 O         1.697966        -2.140463        -3.359018
 C         0.679922        -1.231891        -3.036877
 C         1.220546        -0.125971        -2.202988
 H         0.687939         0.295217         1.264004
 H        -0.015450         1.397965         0.160770
 H        -0.677033        -0.240198         0.385279
 H         3.558844        -0.238531         0.127934
 H         3.411733         0.433622        -2.404255
 H         3.424612        -1.039869        -3.981881
 H         3.849042        -2.199316        -2.600196
 H         0.198583        -0.798776        -3.979236
 H        -0.143754        -1.774250        -2.645341
 H         0.883861         0.919421        -2.416656
