19
Iteration:  3830
 C         0.400606         0.428083         0.440101
 C         1.210073        -0.153125        -0.619267
 O         1.869101        -1.432115        -0.188861
 C         2.624326        -0.341775        -0.674441
 C         2.625639        -0.319603        -2.209478
 C         2.955987        -1.596333        -2.890046
 O         1.828335        -1.969357        -3.690022
 C         0.592203        -1.632150        -2.932823
 C         1.158478        -0.245130        -2.166510
 H        -0.209050         1.314916         0.061828
 H        -0.246151        -0.333883         0.897181
 H         1.024927         0.914892         1.152246
 H         3.371392         0.106698        -0.059441
 H         3.205662         0.553119        -2.513259
 H         3.814884        -1.478876        -3.555395
 H         3.250870        -2.283361        -2.114034
 H        -0.285007        -1.374031        -3.550889
 H         0.460411        -2.408466        -2.113271
 H         0.584516         0.605012        -2.758096
