19
Iteration:   186
 C         0.264230         0.373134         0.415499
 C         1.174426        -0.214382        -0.674315
 O         2.147098        -1.374868        -0.354540
 C         2.667326        -0.146011        -0.905762
 C         2.479812        -0.046061        -2.465805
 C         2.956670        -1.417355        -3.100392
 O         1.908459        -2.379223        -2.979549
 C         0.624016        -1.689074        -2.738112
 C         0.996668        -0.307619        -2.209485
 H        -0.576752         0.934491        -0.056960
 H        -0.029917        -0.361212         1.151814
 H         0.797239         1.178133         0.992945
 H         3.545797         0.321142        -0.368422
 H         2.824840         0.922735        -2.822705
 H         3.265928        -1.427579        -4.167403
 H         3.836014        -1.775470        -2.597850
 H        -0.078903        -1.829383        -3.503969
 H         0.232860        -2.177790        -1.829621
 H         0.286854         0.510831        -2.540292
