19
Iteration:  3484charge 0 multiplicity 1
 C         0.225163         0.505938         0.292329
 C         1.255733        -0.153114        -0.584635
 O         2.064386        -1.353907        -0.141889
 C         2.701838        -0.160113        -0.719404
 C         2.624849        -0.364810        -2.191560
 C         2.987451        -1.590697        -2.975058
 O         1.750070        -1.946693        -3.744114
 C         0.627781        -1.752717        -2.713868
 C         1.028948        -0.435820        -2.080186
 H        -0.525497         0.741116        -0.334388
 H        -0.074596        -0.106369         1.151055
 H         0.574738         1.403067         0.997908
 H         3.505298         0.281560        -0.258668
 H         2.930230         0.513811        -2.813529
 H         3.701104        -1.248398        -3.729137
 H         3.346053        -2.415000        -2.462976
 H        -0.273879        -1.814036        -3.327926
 H         0.826599        -2.591645        -2.018940
 H         0.481835         0.338654        -2.597753
