19
Iteration:  1026
 C         0.405008         0.626385         0.419081
 C         1.205898        -0.174148        -0.551454
 O         2.057328        -1.202941        -0.106911
 C         2.612342        -0.022706        -0.864462
 C         2.397423        -0.230294        -2.401443
 C         2.988330        -1.501568        -3.153960
 O         1.810608        -2.202379        -3.600270
 C         0.883550        -1.997511        -2.579659
 C         0.860986        -0.549827        -2.097920
 H         0.486712         1.662060         0.139514
 H        -0.673992         0.294965         0.532504
 H         0.789951         0.430338         1.410117
 H         3.390432         0.474631        -0.312942
 H         2.410385         0.718992        -2.965684
 H         3.509724        -1.163872        -4.034734
 H         3.633471        -2.009395        -2.460913
 H         0.010061        -2.333305        -3.200249
 H         1.097560        -2.652203        -1.728246
 H         0.159126         0.131384        -2.544630
