19
Iteration:   425charge 0 multiplicity 1
 C         0.367956         0.625012         0.406197
 C         1.112283        -0.232016        -0.543888
 O         2.129653        -1.121998        -0.135865
 C         2.571017         0.055436        -0.811431
 C         2.465310        -0.301305        -2.327565
 C         2.961397        -1.529883        -3.122667
 O         1.821249        -2.134230        -3.679855
 C         0.838506        -2.040119        -2.585080
 C         0.965409        -0.600621        -2.105918
 H         0.335509         1.667900         0.159192
 H        -0.781106         0.167839         0.453995
 H         0.867835         0.531540         1.430228
 H         3.263946         0.712559        -0.318963
 H         2.569550         0.674190        -2.901937
 H         3.598111        -1.154726        -3.950878
 H         3.456090        -2.373268        -2.490368
 H        -0.217880        -2.246021        -3.003223
 H         0.995460        -2.816937        -1.815399
 H         0.262878         0.095255        -2.666911
