19
Iteration:   427charge 0 multiplicity 1
 C         0.355550         0.620801         0.410648
 C         1.115370        -0.217589        -0.548499
 O         2.127583        -1.126205        -0.140859
 C         2.559612         0.038008        -0.806474
 C         2.471307        -0.302939        -2.327961
 C         2.962905        -1.513178        -3.126640
 O         1.815755        -2.152957        -3.673706
 C         0.842425        -2.041886        -2.592141
 C         0.963170        -0.596572        -2.098216
 H         0.278612         1.749801         0.177262
 H        -0.673627         0.203390         0.477452
 H         0.936597         0.522875         1.408430
 H         3.301049         0.772276        -0.331651
 H         2.622792         0.677165        -2.860999
 H         3.640023        -1.151843        -3.999569
 H         3.405627        -2.314216        -2.490557
 H        -0.187841        -2.274907        -3.057189
 H         1.013257        -2.800615        -1.822618
 H         0.271470         0.117606        -2.635882
