19
Iteration:  4575charge 0 multiplicity 1
 C         0.378541         0.379387         0.450195
 C         1.097688        -0.228497        -0.645984
 O         1.639194        -1.529659        -0.450484
 C         2.573215        -0.511130        -0.647671
 C         2.779419        -0.265888        -2.192826
 C         2.973852        -1.526330        -3.045098
 O         1.819033        -2.225930        -3.141816
 C         0.769777        -1.307355        -3.032191
 C         1.269522         0.000162        -2.182050
 H         0.850109         0.162348         1.385928
 H         0.338105         1.393580         0.219380
 H        -0.676502         0.002273         0.548190
 H         3.184329        -0.306769         0.183935
 H         3.298463         0.602998        -2.426962
 H         3.345936        -1.330295        -4.026056
 H         3.812122        -2.081865        -2.575114
 H         0.524649        -0.970987        -4.086056
 H        -0.063910        -1.816372        -2.651197
 H         0.882880         0.811137        -2.776665
