19
Iteration:  2049charge 0 multiplicity 1
 C         0.294488         0.475588         0.388186
 C         1.205529        -0.206714        -0.643830
 O         1.924496        -1.358634        -0.364423
 C         2.669055        -0.196611        -0.908410
 C         2.457400        -0.102796        -2.416243
 C         2.969695        -1.322923        -3.306267
 O         2.005686        -2.355761        -2.998928
 C         0.753067        -1.767061        -2.572076
 C         0.949570        -0.367472        -2.156106
 H        -0.258458         1.357355         0.146638
 H        -0.254329        -0.390539         0.971192
 H         0.971854         0.862618         1.050662
 H         3.547932         0.171229        -0.221460
 H         2.866471         0.750614        -2.901983
 H         3.050333        -0.913441        -4.379264
 H         3.954861        -1.627822        -2.937767
 H        -0.043111        -1.874497        -3.328732
 H         0.422056        -2.508735        -1.742437
 H         0.219985         0.323069        -2.693002
