19
Iteration:  4570
 C         0.349241         0.379957         0.458803
 C         1.118518        -0.267049        -0.698531
 O         1.619778        -1.560314        -0.421266
 C         2.587649        -0.527994        -0.669995
 C         2.805909        -0.247627        -2.183987
 C         2.991601        -1.524469        -3.054841
 O         1.809423        -2.230931        -3.118198
 C         0.772760        -1.276773        -3.024353
 C         1.240080        -0.012473        -2.216658
 H         0.942701         0.301813         1.419595
 H         0.201137         1.568309         0.255867
 H        -0.669847         0.048832         0.601728
 H         3.309824        -0.250348         0.184086
 H         3.419066         0.717178        -2.417282
 H         3.364859        -1.245355        -4.117236
 H         3.814794        -2.076713        -2.588043
 H         0.557338        -0.931684        -4.029510
 H        -0.108186        -1.814957        -2.510321
 H         0.842301         0.914867        -2.722850
