19
Iteration:  2569
 C         0.283905         0.287344         0.287305
 C         1.249609        -0.253429        -0.634853
 O         2.131610        -1.294758        -0.255078
 C         2.688370        -0.019698        -0.858702
 C         2.477023        -0.110449        -2.418341
 C         2.896853        -1.353668        -3.244483
 O         1.936629        -2.367764        -2.952812
 C         0.673708        -1.755593        -2.689293
 C         0.892855        -0.334962        -2.218900
 H         0.147790         1.457672         0.237414
 H        -0.608653        -0.218125         0.102215
 H         0.588081         0.278903         1.349530
 H         3.671803         0.432464        -0.348669
 H         2.812922         0.894822        -2.824431
 H         2.971016        -1.232266        -4.377708
 H         3.898700        -1.697846        -2.837436
 H        -0.029530        -1.946655        -3.593880
 H         0.313290        -2.377004        -1.741562
 H         0.147030         0.359640        -2.532707
