19
Iteration:  1793charge 0 multiplicity 1
 C         0.373295         0.422934         0.400331
 C         1.210792        -0.195148        -0.582557
 O         2.112581        -1.274415        -0.254092
 C         2.579125        -0.006153        -0.826910
 C         2.539129        -0.123994        -2.406700
 C         2.986943        -1.384070        -3.150252
 O         1.853468        -2.389228        -3.252861
 C         0.655829        -1.819103        -2.682438
 C         0.940278        -0.430497        -2.179512
 H         0.129405         1.448207         0.163168
 H        -0.640113        -0.174652         0.472469
 H         0.778914         0.356071         1.555577
 H         3.466863         0.595152        -0.243761
 H         2.829037         0.847434        -2.915692
 H         3.287385        -1.139023        -4.197069
 H         3.798058        -1.963479        -2.615199
 H        -0.066912        -1.810230        -3.549210
 H         0.259513        -2.548810        -2.013868
 H         0.225941         0.306030        -2.637938
