19
Iteration:   335
 C         0.256607         0.222011         0.434301
 C         1.208003        -0.120064        -0.698311
 O         2.209255        -1.140507        -0.237939
 C         2.699527         0.096442        -0.857483
 C         2.553912        -0.193308        -2.386003
 C         2.996953        -1.520946        -2.978307
 O         1.765668        -2.351367        -3.347503
 C         0.618008        -1.813845        -2.670514
 C         0.959707        -0.303233        -2.242460
 H        -0.147054         1.158069         0.458619
 H        -0.759493        -0.427662         0.313272
 H         0.848394         0.057831         1.265498
 H         3.449506         0.507518        -0.240769
 H         2.782914         0.563644        -3.123038
 H         3.515533        -1.466186        -3.870265
 H         3.472796        -2.091120        -2.095461
 H        -0.251752        -1.973308        -3.283799
 H         0.517753        -2.463966        -1.745201
 H         0.411337         0.480129        -2.763172
