19
Iteration:  2777charge 0 multiplicity 1
 C         0.378953         0.166198         0.403765
 C         1.183738        -0.313561        -0.705540
 O         2.345766        -1.231192        -0.323586
 C         2.572349         0.099851        -0.892230
 C         2.466103        -0.098896        -2.444294
 C         2.952499        -1.558581        -2.952909
 O         1.785101        -2.381280        -2.874520
 C         0.598744        -1.618378        -2.960855
 C         0.939457        -0.306694        -2.226484
 H        -0.142628         1.211562         0.210860
 H        -0.410796        -0.590456         0.437901
 H         0.956786         0.306451         1.295568
 H         3.001441         0.814489        -0.231551
 H         2.802005         0.834819        -2.949839
 H         3.121499        -1.338013        -3.990970
 H         3.837051        -2.051862        -2.483434
 H         0.307365        -1.291895        -3.980198
 H        -0.153678        -2.233012        -2.559266
 H         0.439142         0.562837        -2.456344
