19
Iteration:  3881
 C         0.150616         0.267767         0.325586
 C         1.270361        -0.190270        -0.601733
 O         2.040224        -1.344887        -0.156234
 C         2.817395        -0.266166        -0.647221
 C         2.724870        -0.328456        -2.201147
 C         2.911638        -1.723587        -2.844297
 O         1.693254        -1.972168        -3.645480
 C         0.601668        -1.445692        -2.960473
 C         1.160340        -0.206146        -2.176805
 H        -0.915981         0.348346        -0.205600
 H         0.168778        -0.538203         1.079775
 H         0.312989         1.221926         0.774182
 H         3.575430         0.087185        -0.052767
 H         3.050712         0.560924        -2.725571
 H         3.744074        -1.884865        -3.508062
 H         2.918664        -2.518961        -1.944078
 H        -0.206189        -1.143617        -3.604247
 H         0.105218        -2.097759        -2.247029
 H         0.817608         0.628534        -2.705646
