19
Iteration:  3272charge 0 multiplicity 1
 C         0.230036         0.375985         0.298916
 C         1.222316        -0.201756        -0.582560
 O         2.101892        -1.351809        -0.222490
 C         2.711957        -0.234342        -0.818133
 C         2.587360        -0.219272        -2.350693
 C         3.030906        -1.398582        -3.163644
 O         1.853611        -2.288479        -3.143604
 C         0.575196        -1.648547        -2.815018
 C         0.953149        -0.296837        -2.130489
 H         0.626403         0.192293         1.370647
 H         0.182813         1.487065         0.229535
 H        -0.857692         0.123062         0.055426
 H         3.437929         0.159181        -0.240534
 H         2.869602         0.732553        -2.692142
 H         3.230759        -1.017700        -4.209737
 H         3.911290        -1.836587        -2.740710
 H         0.010307        -1.458256        -3.763626
 H         0.039343        -2.397300        -2.212390
 H         0.480545         0.602207        -2.422131
