19
Iteration:   632
 C         0.244878         0.129640         0.363159
 C         1.220068        -0.182707        -0.706328
 O         2.233035        -1.206278        -0.299186
 C         2.660689         0.059439        -0.951256
 C         2.528889        -0.150250        -2.445676
 C         2.927703        -1.460921        -3.088890
 O         1.847775        -2.434121        -2.930150
 C         0.586370        -1.679601        -2.705792
 C         0.996220        -0.250564        -2.210576
 H         0.160182         1.235122         0.462233
 H        -0.884707        -0.367139         0.288544
 H         0.699632        -0.188018         1.399023
 H         3.433227         0.636612        -0.400580
 H         2.917256         0.760374        -3.104768
 H         3.119402        -1.301217        -4.255744
 H         3.836152        -1.959629        -2.675790
 H         0.147600        -1.711854        -3.691036
 H        -0.087796        -2.158884        -1.961894
 H         0.342283         0.589659        -2.666998
