19
Iteration:   327
 C         0.292193         0.243034         0.444437
 C         1.236829        -0.122980        -0.651049
 O         2.148484        -1.159090        -0.316012
 C         2.685309         0.089531        -0.875390
 C         2.566573        -0.115319        -2.449165
 C         2.973490        -1.553284        -2.922992
 O         1.812479        -2.369215        -3.314308
 C         0.601986        -1.794748        -2.675710
 C         0.926721        -0.317671        -2.235668
 H        -0.255576         1.203606         0.377944
 H        -0.288067        -0.709748         0.382956
 H         0.702728         0.051373         1.467404
 H         3.401599         0.443796        -0.236002
 H         2.881886         0.760768        -3.062830
 H         3.617541        -1.606542        -3.819829
 H         3.581747        -2.107665        -2.134195
 H        -0.255941        -2.066481        -3.382476
 H         0.385000        -2.400054        -1.781848
 H         0.405202         0.621298        -2.579172
