19
Iteration:  2379
 C         0.169673         0.331903         0.348261
 C         1.256339        -0.136651        -0.599108
 O         2.138047        -1.248744        -0.200486
 C         2.718989        -0.166737        -0.913675
 C         2.496248        -0.145319        -2.512914
 C         2.878487        -1.349659        -3.283458
 O         1.979863        -2.390732        -3.034097
 C         0.648467        -1.749579        -2.602038
 C         0.944534        -0.386108        -2.165920
 H         0.032955         1.418902         0.232991
 H        -0.702874        -0.234829         0.201598
 H         0.638458         0.368999         1.370937
 H         3.606162         0.332496        -0.418913
 H         2.887671         0.871216        -2.754077
 H         2.912399        -1.004276        -4.341510
 H         3.917098        -1.637958        -3.033290
 H         0.063137        -1.677003        -3.510872
 H         0.096596        -2.442050        -1.916508
 H         0.263323         0.325471        -2.550772
