19
Iteration:  1406
 C         0.180155         0.211864         0.367590
 C         1.204795        -0.088441        -0.660181
 O         2.262254        -1.071570        -0.135267
 C         2.731504         0.053795        -0.900799
 C         2.525248        -0.255735        -2.379704
 C         2.897838        -1.675852        -2.869835
 O         1.706206        -2.069257        -3.577045
 C         0.696083        -1.855420        -2.657222
 C         1.046273        -0.446753        -2.155634
 H        -0.400575         1.236244         0.253070
 H        -0.497953        -0.570010         0.306876
 H         0.690446         0.351560         1.317802
 H         3.675425         0.618525        -0.472127
 H         2.815179         0.628239        -3.034288
 H         3.787676        -1.801441        -3.503506
 H         3.119240        -2.418957        -2.103596
 H        -0.280081        -2.082819        -3.179789
 H         0.681486        -2.474184        -1.646797
 H         0.480612         0.333166        -2.712019
