19
Iteration:  2120
 C         0.229929         0.335936         0.397333
 C         1.213260        -0.300740        -0.629816
 O         2.280563        -1.180265        -0.185649
 C         2.690037         0.008287        -0.810495
 C         2.479303        -0.202345        -2.406735
 C         2.885402        -1.428573        -3.180599
 O         1.888618        -2.422844        -3.024725
 C         0.610149        -1.699483        -2.928830
 C         0.975898        -0.365304        -2.189352
 H        -0.220997         1.398815         0.223356
 H        -0.426385        -0.415329         0.539700
 H         0.692456         0.548028         1.447702
 H         3.318042         0.534614        -0.262327
 H         2.669687         0.746613        -2.980503
 H         2.921808        -1.217295        -4.257086
 H         3.841475        -1.852040        -2.826234
 H         0.187695        -1.634659        -3.908470
 H        -0.118034        -2.200166        -2.367767
 H         0.378013         0.431804        -2.479000
