19
Iteration:   713
 C         0.463003         0.627187         0.322390
 C         1.120107        -0.291365        -0.614293
 O         2.046232        -1.262538        -0.151216
 C         2.589900        -0.204784        -0.853385
 C         2.443470        -0.168488        -2.349538
 C         2.946419        -1.264409        -3.270816
 O         1.963043        -2.343226        -3.247460
 C         0.744239        -1.875682        -2.635565
 C         0.919659        -0.479012        -2.136235
 H        -0.285043         1.247607        -0.208265
 H        -0.274323        -0.138294         0.962720
 H         1.075536         1.211267         0.950801
 H         3.335644         0.360167        -0.249100
 H         2.591033         0.812589        -2.613574
 H         3.022876        -0.823488        -4.356497
 H         3.900386        -1.774465        -3.015015
 H         0.005239        -2.038164        -3.388347
 H         0.491521        -2.519017        -1.825248
 H         0.217287         0.095919        -2.654064
