19
Iteration:  1505charge 0 multiplicity 1
 C         0.402736         0.504308         0.429556
 C         1.141571        -0.187218        -0.637510
 O         2.043098        -1.361388        -0.308976
 C         2.597991        -0.203521        -0.849605
 C         2.489298        -0.149914        -2.392798
 C         2.932833        -1.285065        -3.273186
 O         2.024864        -2.428112        -2.899789
 C         0.701230        -1.798376        -2.858370
 C         0.907309        -0.344558        -2.186833
 H         0.153352         1.652884         0.232945
 H        -0.480693        -0.006741         0.648338
 H         1.053481         0.523587         1.238527
 H         3.333403         0.439307        -0.266749
 H         2.667069         1.033482        -2.581092
 H         2.674222        -1.064784        -4.350541
 H         3.994176        -1.657357        -3.167975
 H         0.049550        -1.667255        -3.765191
 H         0.217867        -2.510607        -2.056698
 H         0.127607         0.317744        -2.586435
