19
Iteration:  1879
 C         0.191988         0.129177         0.430969
 C         1.229911        -0.259842        -0.705217
 O         2.287294        -1.265876        -0.385096
 C         2.652007         0.030426        -0.917671
 C         2.606928        -0.118810        -2.474414
 C         2.914232        -1.528172        -3.054642
 O         1.813141        -2.394101        -2.814772
 C         0.561777        -1.588417        -2.859020
 C         0.982086        -0.242000        -2.213475
 H        -0.626599         0.744583         0.122217
 H        -0.153820        -0.763213         0.851924
 H         0.845559         0.731757         1.102743
 H         3.204246         0.944063        -0.247453
 H         2.949310         0.872759        -3.071516
 H         3.131620        -1.189812        -4.116313
 H         3.795731        -2.021530        -2.497861
 H         0.128396        -1.538944        -3.884262
 H        -0.072456        -2.089451        -2.149953
 H         0.478202         0.664106        -2.611011
