19
Iteration:  4375charge 0 multiplicity 1
 C         0.106301         0.436847         0.285906
 C         1.225784        -0.201374        -0.514117
 O         1.826517        -1.454709        -0.172214
 C         2.702764        -0.337286        -0.551872
 C         2.784920        -0.436052        -2.098367
 C         2.950160        -1.766516        -2.991936
 O         1.804700        -1.860876        -3.775849
 C         0.680999        -1.409946        -2.887907
 C         1.226633        -0.206987        -2.116617
 H         0.541351         0.615544         1.252294
 H         0.023474         1.472214        -0.164967
 H        -0.781097        -0.116029         0.280529
 H         3.586523        -0.227975         0.035866
 H         3.523660         0.340117        -2.505671
 H         3.719367        -1.721073        -3.791392
 H         3.081954        -2.758385        -2.443491
 H        -0.280786        -1.192991        -3.521861
 H         0.349991        -2.248627        -2.289169
 H         0.945440         0.820137        -2.422898
