19
Iteration:  2621
 C         0.444529         0.503758         0.468190
 C         1.145914        -0.240976        -0.635334
 O         1.956957        -1.303533        -0.176319
 C         2.564210        -0.130901        -0.868355
 C         2.441151        -0.148202        -2.429168
 C         2.977447        -1.268524        -3.202445
 O         2.012325        -2.400164        -3.163454
 C         0.721227        -1.906991        -2.725376
 C         0.942549        -0.386291        -2.241773
 H        -0.007764         1.442435        -0.055207
 H        -0.253477        -0.122623         1.072340
 H         1.222757         0.798819         1.325854
 H         3.267582         0.531347        -0.410533
 H         2.681899         0.876456        -2.895252
 H         3.056461        -0.893778        -4.217638
 H         4.046091        -1.539438        -2.912613
 H         0.041112        -1.887438        -3.555116
 H         0.340664        -2.466305        -1.940923
 H         0.197744         0.314665        -2.588776
