19
Iteration:  3441
 C         0.197550         0.380365         0.340438
 C         1.226214        -0.201765        -0.586551
 O         2.102542        -1.254315        -0.090273
 C         2.713071        -0.066177        -0.716526
 C         2.666463        -0.352379        -2.255909
 C         2.922314        -1.659734        -3.030844
 O         1.696691        -2.011684        -3.677946
 C         0.680559        -1.714335        -2.752364
 C         1.102073        -0.352989        -2.121986
 H        -0.207303         1.274934        -0.076915
 H        -0.613730        -0.367721         0.229302
 H         0.538887         0.523466         1.494573
 H         3.310420         0.434236        -0.013552
 H         3.060432         0.500222        -2.873411
 H         3.613787        -1.436541        -3.872558
 H         3.236021        -2.552251        -2.411481
 H        -0.260981        -1.627514        -3.259533
 H         0.754864        -2.501743        -1.989213
 H         0.628076         0.493307        -2.687591
