19
Iteration:  4631charge 0 multiplicity 1
 C         0.221479         0.424138         0.240000
 C         1.218246        -0.315323        -0.614937
 O         1.824023        -1.589181        -0.224731
 C         2.709025        -0.333987        -0.578685
 C         2.764782        -0.349002        -2.113196
 C         3.037452        -1.590066        -3.016669
 O         1.756360        -2.177726        -3.377524
 C         0.637215        -1.187859        -3.032166
 C         1.179052        -0.125942        -2.140008
 H         0.105832        -0.163717         1.210963
 H         0.533540         1.396985         0.414718
 H        -0.752681         0.394036        -0.336505
 H         3.360126         0.043912         0.149617
 H         3.116639         0.526099        -2.513133
 H         3.385926        -1.256809        -3.962648
 H         3.661773        -2.362957        -2.476615
 H         0.213486        -0.819632        -3.947021
 H        -0.086843        -1.753034        -2.569546
 H         0.910231         0.859965        -2.492654
