19
Iteration:  1488charge 0 multiplicity 1
 C         0.353762         0.525076         0.413579
 C         1.189320        -0.275011        -0.627419
 O         2.032220        -1.366037        -0.303189
 C         2.679556        -0.119985        -0.878724
 C         2.437059        -0.123836        -2.408158
 C         2.952039        -1.319399        -3.215560
 O         1.984306        -2.374900        -3.039326
 C         0.679955        -1.779133        -2.710309
 C         0.922900        -0.396305        -2.160518
 H         0.011648         1.328006        -0.146592
 H        -0.586546        -0.024444         0.817279
 H         0.949431         0.785903         1.359305
 H         3.469971         0.225934        -0.282018
 H         2.675499         0.708084        -2.942710
 H         3.023718        -0.996213        -4.252423
 H         3.825557        -1.694032        -2.712060
 H         0.315325        -1.707213        -3.728560
 H         0.077781        -2.448766        -2.158239
 H         0.348133         0.401090        -2.650182
