19
Iteration:  1199charge 0 multiplicity 1
 C         0.297059         0.320519         0.433080
 C         1.179773        -0.270534        -0.603953
 O         2.319669        -1.228571        -0.223187
 C         2.611051        -0.033779        -0.943198
 C         2.468397        -0.144701        -2.413880
 C         3.007433        -1.439567        -3.070301
 O         1.830748        -2.436405        -2.999941
 C         0.593880        -1.675075        -2.939726
 C         0.910905        -0.337383        -2.225041
 H         0.291705         1.475295         0.470461
 H        -0.692232        -0.020713         0.247902
 H         0.678197         0.113121         1.461422
 H         3.364682         0.635826        -0.463788
 H         2.788938         0.748087        -2.928237
 H         3.383251        -1.303607        -4.095893
 H         3.796755        -1.990356        -2.475776
 H         0.145204        -1.480429        -3.962040
 H        -0.151637        -2.178591        -2.397784
 H         0.121186         0.469381        -2.351398
