19
Iteration:  1059
 C         0.378922         0.619785         0.347794
 C         1.190402        -0.192099        -0.560682
 O         2.203003        -1.112858        -0.012595
 C         2.614138         0.008641        -0.819953
 C         2.461470        -0.299237        -2.304765
 C         2.937901        -1.554345        -3.098772
 O         1.774593        -2.102024        -3.693233
 C         0.802060        -2.045326        -2.702166
 C         0.878443        -0.619422        -2.061096
 H         0.023807         1.536038        -0.051383
 H        -0.553929         0.062212         0.774405
 H         1.073518         0.902715         1.105664
 H         3.256005         0.732404        -0.260998
 H         2.458072         0.639670        -2.851120
 H         3.560265        -1.192952        -3.894503
 H         3.459363        -2.316956        -2.497745
 H        -0.152258        -2.208391        -3.351966
 H         0.871801        -2.894170        -1.973255
 H         0.150954         0.038661        -2.545411
