19
Iteration:  2442
 C         0.286875         0.198387         0.446331
 C         1.263750        -0.254834        -0.609490
 O         2.284715        -1.161473        -0.237662
 C         2.672031         0.069438        -0.965113
 C         2.413887        -0.183990        -2.457902
 C         2.937672        -1.520515        -3.007411
 O         1.873792        -2.375553        -3.070274
 C         0.557771        -1.611119        -2.921892
 C         0.942092        -0.360049        -2.155159
 H        -0.499099         0.624248        -0.098249
 H        -0.341415        -0.673839         1.062701
 H         0.678422         0.853729         1.210966
 H         3.502420         0.694755        -0.420461
 H         2.734037         0.623571        -3.082201
 H         3.620218        -1.526848        -3.896384
 H         3.518085        -1.946819        -2.176943
 H         0.102640        -1.531542        -4.010923
 H        -0.068587        -2.278566        -2.432594
 H         0.284433         0.577372        -2.405681
