19
Iteration:   353charge 0 multiplicity 1
 C         0.211609         0.271375         0.363551
 C         1.186815        -0.167811        -0.661322
 O         2.254392        -1.079150        -0.158418
 C         2.616366         0.022066        -0.913670
 C         2.536579        -0.244028        -2.403927
 C         2.957710        -1.619197        -3.027822
 O         1.779204        -2.201884        -3.433076
 C         0.682843        -1.776185        -2.560387
 C         1.024800        -0.462581        -2.142959
 H         0.102729         1.473026         0.343880
 H        -0.698901        -0.217848         0.085999
 H         0.482064        -0.100775         1.410740
 H         3.290082         0.928511        -0.416044
 H         2.843950         0.678943        -2.915585
 H         3.508470        -1.412030        -4.051310
 H         3.560646        -2.255339        -2.445269
 H        -0.186976        -1.819577        -3.238970
 H         0.452816        -2.547303        -1.823444
 H         0.459267         0.362814        -2.560768
