19
Iteration:  1617
 C         0.190261         0.258677         0.434915
 C         1.233250        -0.136511        -0.587912
 O         2.229985        -1.107858        -0.187428
 C         2.701805         0.081493        -0.881910
 C         2.522679        -0.228243        -2.390775
 C         3.009763        -1.604214        -3.010276
 O         1.760222        -2.286300        -3.463679
 C         0.594405        -1.792486        -2.707195
 C         0.995327        -0.354096        -2.137616
 H        -0.459319         1.031467         0.148700
 H        -0.378825        -0.643404         0.724049
 H         0.767221         0.672964         1.283663
 H         3.604395         0.475373        -0.447727
 H         2.909243         0.654596        -2.950370
 H         3.677146        -1.528380        -3.833882
 H         3.554752        -2.142775        -2.234956
 H        -0.211762        -1.685121        -3.434756
 H         0.334008        -2.634699        -1.992255
 H         0.339390         0.291171        -2.710647
