19
Iteration:  1740charge 0 multiplicity 1
 C         0.245220         0.412522         0.365849
 C         1.214729        -0.199047        -0.640594
 O         2.057009        -1.247857        -0.306097
 C         2.722313        -0.059447        -0.766975
 C         2.500000        -0.154539        -2.420062
 C         2.955704        -1.445669        -3.154011
 O         1.812601        -2.267193        -3.366158
 C         0.757453        -1.864901        -2.506916
 C         1.023913        -0.387842        -2.155913
 H         0.096581         1.398054         0.236978
 H        -0.780631        -0.144926         0.404562
 H         0.834138         0.412941         1.419933
 H         3.477280         0.594416        -0.119592
 H         2.623875         0.727956        -2.995958
 H         3.238224        -1.220384        -4.210827
 H         3.616630        -2.026252        -2.549371
 H        -0.159869        -2.134199        -3.183512
 H         0.724074        -2.521286        -1.593479
 H         0.332546         0.412750        -2.546818
