19
Iteration:  2700charge 0 multiplicity 1
 C         0.242688         0.268024         0.353654
 C         1.250274        -0.210914        -0.637780
 O         2.096609        -1.248669        -0.194189
 C         2.710278        -0.026883        -0.876221
 C         2.604928        -0.192658        -2.380013
 C         2.847869        -1.355580        -3.270950
 O         1.929076        -2.362123        -3.001902
 C         0.597886        -1.759268        -2.695159
 C         0.982082        -0.349396        -2.263009
 H        -0.235428         1.364782         0.044422
 H        -0.634540        -0.386988         0.235138
 H         0.748719         0.048586         1.371335
 H         3.540804         0.649515        -0.388929
 H         2.883018         0.850734        -2.849584
 H         2.962041        -0.921826        -4.244077
 H         3.795749        -1.837305        -2.893079
 H        -0.072291        -1.791074        -3.495869
 H         0.164383        -2.272955        -1.867476
 H         0.557485         0.454419        -2.759219
