19
Iteration:   887
 C         0.368753         0.070050         0.456012
 C         1.281530        -0.237083        -0.657018
 O         2.330344        -1.151212        -0.329278
 C         2.629107         0.136321        -1.016347
 C         2.411229        -0.171760        -2.438660
 C         2.992858        -1.527760        -2.894847
 O         1.743413        -2.411855        -2.853814
 C         0.550591        -1.533126        -3.055517
 C         0.888472        -0.358204        -2.208054
 H        -0.444042         0.595014         0.164007
 H         0.114172        -0.848264         1.043801
 H         0.904284         0.603373         1.130702
 H         3.444816         0.819565        -0.432659
 H         2.673871         0.631556        -3.093290
 H         3.415346        -1.582890        -3.901304
 H         3.582317        -2.038599        -2.078735
 H         0.694695        -1.318250        -4.168391
 H        -0.449251        -2.031422        -2.771890
 H         0.362745         0.509340        -2.410235
