19
Iteration:   616charge 0 multiplicity 1
 C         0.270720         0.146791         0.422808
 C         1.259394        -0.223682        -0.682986
 O         2.260839        -1.177946        -0.430765
 C         2.673586         0.083140        -0.929199
 C         2.483068        -0.112954        -2.495641
 C         2.922659        -1.523837        -2.991890
 O         1.819259        -2.407651        -2.823592
 C         0.612740        -1.630880        -2.868272
 C         0.959941        -0.359705        -2.178206
 H         0.026192         1.238602         0.656242
 H        -0.555447        -0.267318         0.108197
 H         0.570190        -0.239157         1.354251
 H         3.343640         0.698318        -0.342669
 H         2.694623         0.767344        -3.094746
 H         3.130547        -1.432287        -4.036402
 H         3.756847        -1.906104        -2.422876
 H         0.220726        -1.319262        -3.910318
 H        -0.071924        -2.323599        -2.338918
 H         0.373083         0.475328        -2.444443
