19
Iteration:  3719charge 0 multiplicity 1
 C         0.322436         0.425232         0.396501
 C         1.225194        -0.158932        -0.613312
 O         1.885310        -1.377831        -0.095405
 C         2.678426        -0.251691        -0.661075
 C         2.690296        -0.375079        -2.214592
 C         2.992832        -1.594550        -3.030254
 O         1.714137        -1.987242        -3.768103
 C         0.695108        -1.610335        -2.817264
 C         1.110124        -0.323907        -2.104888
 H         0.915964         0.826579         1.330277
 H        -0.164633         1.252081        -0.140772
 H        -0.412270        -0.241254         0.679247
 H         3.329463         0.273505         0.003649
 H         2.958249         0.528060        -2.719153
 H         3.784556        -1.519550        -3.737787
 H         3.213177        -2.322540        -2.304136
 H        -0.254936        -1.577001        -3.299689
 H         0.576642        -2.547934        -2.079003
 H         0.828779         0.714568        -2.620130
