19
Iteration:  4626charge 0 multiplicity 1
 C         0.255134         0.389282         0.266460
 C         1.199930        -0.295952        -0.634579
 O         1.802479        -1.609114        -0.211549
 C         2.670812        -0.323019        -0.582111
 C         2.708890        -0.368150        -2.164921
 C         3.053338        -1.599552        -3.017630
 O         1.754531        -2.179618        -3.354880
 C         0.667310        -1.174822        -3.052923
 C         1.210423        -0.109553        -2.138917
 H         0.065391        -0.097973         1.189335
 H         0.555065         1.536282         0.472410
 H        -0.734994         0.436046        -0.196488
 H         3.507943        -0.045254         0.153942
 H         3.112008         0.684438        -2.509584
 H         3.609358        -1.302089        -3.992854
 H         3.775731        -2.178651        -2.443928
 H         0.159258        -0.910549        -4.028692
 H        -0.117538        -1.770010        -2.411954
 H         0.903661         0.903445        -2.501949
