19
Iteration:   242
 C         0.189693         0.328837         0.491356
 C         1.265256        -0.193204        -0.531622
 O         2.210804        -1.164528        -0.071792
 C         2.706230        -0.105104        -0.907291
 C         2.582925        -0.288791        -2.435773
 C         2.959909        -1.446843        -3.314885
 O         1.858484        -2.375480        -3.026994
 C         0.627560        -1.681070        -2.941829
 C         0.892511        -0.378812        -2.177767
 H        -0.780683         0.436604        -0.142060
 H        -0.160937        -0.316508         1.191399
 H         0.440163         1.371463         0.940649
 H         3.448918         0.720585        -0.467861
 H         2.877186         0.693974        -2.840203
 H         2.954779        -1.116110        -4.411276
 H         3.782408        -1.954168        -2.982356
 H         0.249281        -1.360426        -3.924141
 H        -0.137668        -2.335296        -2.532061
 H         0.486414         0.542341        -2.648044
