19
Iteration:  2372
 C         0.220725         0.369466         0.324990
 C         1.254152        -0.168141        -0.573697
 O         2.099558        -1.266080        -0.253983
 C         2.726224        -0.188819        -0.959008
 C         2.446939        -0.157055        -2.454894
 C         2.892477        -1.312090        -3.290753
 O         1.996971        -2.383363        -2.994106
 C         0.698609        -1.798173        -2.622135
 C         0.924505        -0.317587        -2.132013
 H        -0.012599         1.518304         0.185039
 H        -0.739073        -0.120588         0.183768
 H         0.584357         0.177820         1.386542
 H         3.553658         0.197077        -0.499809
 H         2.817137         0.836526        -2.807517
 H         2.868992        -1.089253        -4.352850
 H         3.919375        -1.578997        -2.998558
 H        -0.000797        -1.790779        -3.458871
 H         0.165275        -2.468374        -1.800412
 H         0.291509         0.442952        -2.597688
