19
Iteration:  1745charge 0 multiplicity 1
 C         0.264687         0.402404         0.394249
 C         1.216629        -0.151774        -0.658068
 O         2.045618        -1.302752        -0.330300
 C         2.722225        -0.049723        -0.803769
 C         2.500585        -0.134356        -2.417001
 C         2.954634        -1.460419        -3.185920
 O         1.820303        -2.259369        -3.323962
 C         0.755143        -1.885030        -2.499195
 C         1.006852        -0.363358        -2.148419
 H         0.023519         1.565400         0.171613
 H        -0.660208        -0.061736         0.391282
 H         0.590187         0.343997         1.351152
 H         3.388777         0.387773        -0.163966
 H         2.614199         0.943780        -2.796935
 H         3.366629        -1.226013        -4.169623
 H         3.642187        -2.013341        -2.464589
 H        -0.057822        -2.210337        -3.066297
 H         0.771217        -2.524096        -1.604528
 H         0.365770         0.365545        -2.601101
