19
Iteration:  2784charge 0 multiplicity 1
 C         0.344819         0.138685         0.385518
 C         1.221609        -0.302582        -0.653317
 O         2.302095        -1.176266        -0.333611
 C         2.552000         0.116417        -0.881972
 C         2.470283        -0.171964        -2.399347
 C         2.968097        -1.526964        -2.996745
 O         1.769408        -2.374383        -2.893065
 C         0.622731        -1.563999        -2.979932
 C         0.983229        -0.362056        -2.159497
 H        -0.057712         1.026131         0.107271
 H        -0.361220        -0.636781         0.686479
 H         0.914877         0.407103         1.368748
 H         3.154744         1.014580        -0.399403
 H         2.737337         0.520911        -3.259649
 H         3.224715        -1.376977        -4.110477
 H         3.762147        -2.230283        -2.593955
 H         0.327189        -1.377857        -4.104225
 H        -0.213024        -2.139973        -2.501087
 H         0.366300         0.541998        -2.558717
