19
Iteration:  3680
 C         0.271125         0.347678         0.459982
 C         1.186576        -0.164723        -0.565934
 O         2.153978        -1.393272        -0.224804
 C         2.666910        -0.200776        -0.747205
 C         2.593768        -0.377912        -2.277730
 C         2.950277        -1.688247        -2.784992
 O         1.794551        -2.017108        -3.653268
 C         0.615920        -1.495343        -2.948291
 C         1.028106        -0.250281        -2.175408
 H         0.442411         0.110708         1.471868
 H         0.310713         1.462166         0.614844
 H        -0.833437         0.069278         0.073040
 H         3.419886         0.463876        -0.287132
 H         3.062441         0.478090        -2.839379
 H         3.900895        -1.767152        -3.408337
 H         2.934472        -2.512239        -1.959870
 H        -0.279481        -1.439431        -3.671695
 H         0.364514        -2.087824        -2.099470
 H         0.698575         0.617345        -2.613388
