19
Iteration:  1859
 C         0.266116         0.204347         0.382466
 C         1.236483        -0.256138        -0.642717
 O         2.320994        -1.170545        -0.266316
 C         2.655499         0.027428        -0.880036
 C         2.474933        -0.198312        -2.377716
 C         2.897612        -1.470216        -3.126528
 O         1.798491        -2.389964        -2.920735
 C         0.624613        -1.643476        -2.938480
 C         0.975275        -0.340784        -2.171867
 H        -0.452562         0.717066        -0.164207
 H        -0.265751        -0.711962         0.811669
 H         0.671206         0.964436         1.196846
 H         3.557556         0.476153        -0.287877
 H         2.777877         0.708785        -2.970825
 H         3.063683        -1.266013        -4.182979
 H         3.683090        -2.033653        -2.597559
 H         0.388676        -1.273381        -3.933174
 H        -0.243882        -2.111727        -2.571683
 H         0.297978         0.491506        -2.465003
