19
Iteration:  3129charge 0 multiplicity 1
 C         0.188650         0.266873         0.366514
 C         1.197791        -0.131437        -0.626146
 O         2.227705        -1.231153        -0.195337
 C         2.688356        -0.035005        -0.828553
 C         2.602704        -0.241427        -2.340396
 C         2.923642        -1.514648        -3.111028
 O         1.821319        -2.324804        -3.216941
 C         0.592417        -1.653567        -2.809427
 C         1.019853        -0.329272        -2.205414
 H        -0.699330        -0.430009         0.400716
 H         0.521798         0.011625         1.382924
 H        -0.071681         1.276289         0.439968
 H         3.521630         0.560739        -0.301817
 H         2.934685         0.645545        -2.865828
 H         3.325077        -1.290949        -4.134285
 H         3.694063        -2.047619        -2.634844
 H        -0.130892        -1.490511        -3.722419
 H         0.084952        -2.335194        -2.066501
 H         0.428393         0.528285        -2.475930
