19
Iteration:  4474
 C         0.291462         0.324361         0.346134
 C         1.262471        -0.209962        -0.587584
 O         1.721207        -1.514946        -0.213573
 C         2.646303        -0.419448        -0.616084
 C         2.755424        -0.329818        -2.161306
 C         3.031337        -1.560485        -2.985865
 O         1.771223        -2.198583        -3.410444
 C         0.599731        -1.231434        -3.087207
 C         1.247844        -0.089431        -2.148468
 H         0.601622         0.187948         1.307041
 H         0.197304         1.427943         0.013056
 H        -0.632431        -0.079703         0.010573
 H         3.442516        -0.223284         0.230484
 H         3.263795         0.669954        -2.370833
 H         3.621936        -1.415751        -3.888702
 H         3.390400        -2.457712        -2.442386
 H         0.265335        -0.759567        -4.132747
 H        -0.135161        -1.800963        -2.433444
 H         1.026604         0.923587        -2.652531
