19
Iteration:   305
 C         0.261099         0.222630         0.444801
 C         1.182336        -0.162378        -0.698918
 O         2.176204        -1.250541        -0.417478
 C         2.685569         0.011526        -0.970956
 C         2.458098        -0.218849        -2.449340
 C         3.010320        -1.496033        -2.862513
 O         1.821878        -2.283074        -3.175835
 C         0.682995        -1.673932        -2.642987
 C         0.947505        -0.309382        -2.177074
 H        -0.384520         1.053937         0.085189
 H        -0.195053        -0.669334         0.982938
 H         0.922600         0.704619         1.204720
 H         3.463323         0.387130        -0.471551
 H         2.638233         0.557250        -3.207769
 H         3.659392        -1.559472        -3.747697
 H         3.613960        -2.025360        -2.036419
 H        -0.062674        -1.621151        -3.523175
 H         0.199108        -2.436942        -2.041770
 H         0.390047         0.539090        -2.701827
