19
Iteration:  4400
 C         0.163885         0.372609         0.372484
 C         1.241016        -0.173600        -0.639337
 O         1.824177        -1.457413        -0.246354
 C         2.694857        -0.425327        -0.610652
 C         2.749889        -0.398580        -2.159594
 C         3.016587        -1.687777        -2.857634
 O         1.789446        -1.974590        -3.631462
 C         0.622814        -1.316426        -2.928531
 C         1.229154        -0.174773        -2.187337
 H         0.437008         0.052372         1.362982
 H         0.088775         1.488632         0.307454
 H        -0.813008        -0.062696        -0.031035
 H         3.567928         0.030471         0.073637
 H         3.336264         0.458239        -2.482890
 H         3.747113        -1.878159        -3.676188
 H         3.047033        -2.522618        -2.089249
 H        -0.138295        -0.961759        -3.641903
 H         0.145870        -2.054172        -2.335058
 H         1.086172         0.881141        -2.556644
