19
Iteration:  1434
 C         0.207399         0.288465         0.377476
 C         1.201234        -0.154030        -0.623203
 O         2.171005        -1.150545        -0.201588
 C         2.681751         0.071888        -0.847423
 C         2.578254        -0.221673        -2.364620
 C         2.993718        -1.604186        -3.048760
 O         1.716995        -2.271514        -3.448085
 C         0.690472        -1.787471        -2.637709
 C         1.031529        -0.362274        -2.130152
 H        -0.401315         1.057741         0.106538
 H        -0.488910        -0.665478         0.374713
 H         0.702693         0.621902         1.377376
 H         3.347575         0.652971        -0.325485
 H         2.955677         0.635623        -3.008776
 H         3.526125        -1.358411        -3.992175
 H         3.629575        -2.356569        -2.511649
 H        -0.152155        -1.930870        -3.283489
 H         0.526632        -2.288334        -1.733055
 H         0.481806         0.492817        -2.550936
