19
Iteration:  1023
 C         0.396865         0.611417         0.408105
 C         1.200919        -0.188956        -0.573965
 O         2.055342        -1.219069        -0.119361
 C         2.614374        -0.013344        -0.866909
 C         2.395110        -0.217034        -2.384041
 C         2.955140        -1.497297        -3.156852
 O         1.828395        -2.209414        -3.596842
 C         0.889300        -1.994271        -2.544568
 C         0.868323        -0.530331        -2.090293
 H         0.463885         1.740660         0.152374
 H        -0.577664         0.316955         0.463494
 H         0.812940         0.379603         1.459769
 H         3.376472         0.509200        -0.416485
 H         2.601409         0.768341        -2.928135
 H         3.548246        -1.215014        -4.097222
 H         3.687963        -2.021192        -2.467527
 H        -0.084171        -2.375188        -3.200958
 H         1.068319        -2.662453        -1.666233
 H         0.064470         0.243773        -2.574882
