19
Iteration:  4342charge 0 multiplicity 1
 C         0.315811         0.541016         0.217377
 C         1.225651        -0.210269        -0.616193
 O         1.777236        -1.538301         0.002136
 C         2.684549        -0.435205        -0.528873
 C         2.722862        -0.423817        -2.137657
 C         2.935790        -1.690891        -2.958635
 O         1.845833        -1.677527        -3.795298
 C         0.667766        -1.597420        -2.952362
 C         1.128972        -0.256514        -2.128226
 H         0.736466         0.988448         1.099913
 H        -0.135095         1.377507        -0.383859
 H        -0.478073        -0.003938         0.613282
 H         3.438606        -0.137479         0.110710
 H         3.425988         0.425772        -2.364003
 H         3.784931        -1.638353        -3.658272
 H         3.032284        -2.678415        -2.354265
 H        -0.310090        -1.365464        -3.511987
 H         0.633827        -2.405112        -2.271359
 H         0.664596         0.645175        -2.573068
