19
Iteration:  3846charge 0 multiplicity 1
 C         0.313774         0.410432         0.431755
 C         1.163435        -0.241107        -0.653234
 O         1.955517        -1.430609        -0.216110
 C         2.675464        -0.283091        -0.683421
 C         2.695286        -0.324374        -2.202354
 C         2.982981        -1.739664        -2.865039
 O         1.782141        -1.911732        -3.635014
 C         0.679514        -1.492239        -2.872970
 C         1.008994        -0.220851        -2.250543
 H        -0.539817         0.959532         0.099398
 H        -0.105882        -0.330980         1.122268
 H         0.997729         1.014754         1.133545
 H         3.494516         0.128440         0.023774
 H         3.071868         0.505684        -2.825852
 H         3.878171        -1.739139        -3.519960
 H         3.069718        -2.555775        -2.084128
 H        -0.091526        -1.421666        -3.709128
 H         0.368571        -2.196787        -2.094136
 H         0.761056         0.681084        -2.623063
