19
Iteration:  3386
 C         0.296890         0.403003         0.448160
 C         1.192687        -0.231658        -0.673147
 O         2.124901        -1.412988        -0.343508
 C         2.660146        -0.097368        -0.807845
 C         2.574123        -0.138351        -2.300121
 C         3.001209        -1.563793        -2.853469
 O         1.837990        -2.241647        -3.421819
 C         0.584080        -1.617550        -2.802927
 C         0.960816        -0.250894        -2.194784
 H         0.744460         1.297031         0.683011
 H        -0.777210         0.563541         0.253040
 H         0.318762        -0.377496         1.330959
 H         3.440954         0.176277        -0.066769
 H         2.928073         0.762044        -2.874145
 H         3.749492        -1.479320        -3.694407
 H         3.452678        -2.258414        -2.064916
 H        -0.169584        -1.590931        -3.578993
 H         0.234272        -2.326974        -2.065742
 H         0.380307         0.538243        -2.708670
