19
Iteration:  2986
 C         0.136897         0.505484         0.300567
 C         1.165921        -0.219479        -0.569328
 O         2.315796        -1.213762        -0.041936
 C         2.678907         0.028902        -0.761694
 C         2.567898        -0.312468        -2.350767
 C         2.959042        -1.542412        -3.072962
 O         1.675249        -2.044011        -3.699789
 C         0.799765        -1.950078        -2.586490
 C         0.977958        -0.508513        -2.098899
 H         0.151417         1.641043         0.077200
 H        -0.921503         0.371829         0.000998
 H         0.270690         0.385104         1.306766
 H         3.380833         0.730066        -0.092290
 H         2.573556         0.572077        -2.995795
 H         3.634796        -1.416801        -3.983033
 H         3.388107        -2.392492        -2.382730
 H        -0.215279        -2.323223        -3.085706
 H         1.101003        -2.669882        -1.891001
 H         0.295811         0.088057        -2.646687
