19
Iteration:  3191charge 0 multiplicity 1
 C         0.222233         0.350507         0.463448
 C         1.275596        -0.213888        -0.634141
 O         2.070579        -1.361417        -0.343536
 C         2.690531        -0.177989        -0.861425
 C         2.532655        -0.104107        -2.371606
 C         2.903280        -1.404950        -3.162174
 O         1.918115        -2.466042        -2.934999
 C         0.668747        -1.586359        -2.882951
 C         0.971921        -0.215534        -2.219839
 H        -0.074333        -0.540808         1.160175
 H         0.705316         1.138516         1.028702
 H        -0.618799         0.592060        -0.123363
 H         3.605230         0.265095        -0.246362
 H         3.052451         0.837570        -2.771945
 H         3.033059        -1.227195        -4.271916
 H         3.864343        -1.750397        -2.722460
 H         0.424960        -1.478093        -3.977252
 H        -0.211559        -2.093434        -2.399021
 H         0.171368         0.584581        -2.416240
