19
Iteration:  3225charge 0 multiplicity 1
 C         0.402770         0.335898         0.510833
 C         1.075722        -0.233437        -0.746024
 O         2.007609        -1.348654        -0.349823
 C         2.639851        -0.212258        -0.849108
 C         2.556383        -0.180083        -2.347152
 C         2.995924        -1.399558        -3.175375
 O         1.946135        -2.346574        -2.897700
 C         0.612612        -1.613352        -2.893719
 C         0.980072        -0.269144        -2.282722
 H         0.418773        -0.397748         1.472342
 H         0.736690         1.297607         0.884274
 H        -0.566703         0.638706         0.340857
 H         3.400840         0.405536        -0.172000
 H         2.973022         0.843252        -2.593937
 H         3.239090        -1.032665        -4.193280
 H         3.883639        -1.811422        -2.755761
 H         0.236147        -1.590060        -4.000395
 H        -0.146575        -2.095147        -2.171415
 H         0.351312         0.587834        -2.677294
