19
Iteration:  4098charge 0 multiplicity 1
 C         0.256150         0.407402         0.411507
 C         1.244823        -0.106223        -0.619991
 O         1.784219        -1.497835        -0.127103
 C         2.665869        -0.425587        -0.562632
 C         2.767965        -0.415229        -2.171868
 C         2.983596        -1.715519        -2.955075
 O         1.813227        -1.876492        -3.763507
 C         0.621449        -1.397890        -2.940181
 C         1.166996        -0.172220        -2.166942
 H         0.817607         0.790644         1.266800
 H        -0.417081         1.168038         0.053451
 H        -0.510787        -0.353476         0.648607
 H         3.587613        -0.133435         0.117940
 H         3.307852         0.446767        -2.639899
 H         3.914365        -1.678421        -3.522116
 H         3.024395        -2.591364        -2.264595
 H        -0.178069        -1.469661        -3.774792
 H         0.455203        -2.159178        -2.182290
 H         0.895820         0.750912        -2.633509
