19
Iteration:  2082
 C         0.269164         0.423804         0.331582
 C         1.255999        -0.192021        -0.589045
 O         2.049879        -1.299886        -0.263070
 C         2.724839        -0.169512        -0.838825
 C         2.461912        -0.157741        -2.409660
 C         2.878301        -1.316585        -3.320756
 O         1.973366        -2.379050        -2.952774
 C         0.683184        -1.742411        -2.705239
 C         0.964539        -0.386156        -2.210297
 H        -0.541115         1.007489        -0.108670
 H        -0.294009        -0.476699         0.877110
 H         0.841777         0.792009         1.126358
 H         3.557278         0.324408        -0.113328
 H         2.743399         0.816791        -2.796260
 H         2.868744        -0.972890        -4.466098
 H         3.907951        -1.695844        -3.172771
 H         0.150527        -1.698794        -3.697034
 H         0.159075        -2.349902        -1.841663
 H         0.332025         0.467600        -2.666015
