19
Iteration:  3283charge 0 multiplicity 1
 C         0.208196         0.415758         0.303391
 C         1.241323        -0.232165        -0.647030
 O         2.149023        -1.410125        -0.130014
 C         2.696537        -0.193502        -0.743298
 C         2.552062        -0.200822        -2.336251
 C         2.915908        -1.394454        -3.178120
 O         1.829505        -2.277874        -3.189799
 C         0.656535        -1.623623        -2.809768
 C         1.032744        -0.284596        -2.209973
 H         0.415103         0.309250         1.421602
 H         0.029018         1.464669        -0.000080
 H        -0.679347        -0.270117         0.255009
 H         3.459650         0.255277        -0.241040
 H         3.022272         0.638315        -2.759041
 H         3.221205        -1.095923        -4.222268
 H         3.715556        -1.991970        -2.782617
 H        -0.022394        -1.551383        -3.715886
 H         0.121862        -2.167903        -2.018695
 H         0.373609         0.443479        -2.589121
