19
Iteration:  4056
 C         0.223070         0.665411         0.238482
 C         1.188763        -0.238246        -0.497580
 O         1.816562        -1.583588        -0.179871
 C         2.652777        -0.413614        -0.555912
 C         2.784542        -0.422130        -2.100363
 C         3.096510        -1.664797        -3.126859
 O         1.718452        -1.743244        -3.752484
 C         0.676440        -1.581386        -2.787776
 C         1.162863        -0.303986        -2.089382
 H         0.320330         0.378845         1.379966
 H         0.243447         1.723654         0.064732
 H        -0.766978         0.351488        -0.096467
 H         3.486173        -0.325697         0.263893
 H         3.189208         0.604969        -2.426042
 H         3.700664        -1.484439        -3.982265
 H         3.393938        -2.536215        -2.603401
 H        -0.260272        -1.326329        -3.366829
 H         0.773326        -2.439975        -2.025685
 H         0.877248         0.661216        -2.497953
