19
Iteration:  1997charge 0 multiplicity 1
 C         0.324726         0.437788         0.444703
 C         1.201681        -0.190482        -0.506415
 O         2.138558        -1.229377        -0.204619
 C         2.620981        -0.073820        -0.891816
 C         2.411884        -0.166938        -2.413692
 C         2.960653        -1.396240        -3.282839
 O         1.964024        -2.416571        -3.111791
 C         0.680968        -1.804533        -2.842458
 C         0.937171        -0.443716        -2.069225
 H         0.175570         1.670969         0.111268
 H        -0.721662         0.153830         0.150876
 H         0.552435         0.474120         1.511350
 H         3.463413         0.392148        -0.179623
 H         2.485588         0.797748        -3.101561
 H         3.120968        -1.049997        -4.294498
 H         3.897582        -1.834482        -2.848987
 H         0.279254        -1.548513        -3.820436
 H         0.000306        -2.632056        -2.407127
 H         0.402959         0.426442        -2.534109
