19
Iteration:  3088charge 0 multiplicity 1
 C         0.314242         0.301148         0.406767
 C         1.184191        -0.194775        -0.670220
 O         2.199034        -1.293663        -0.284513
 C         2.669215        -0.042400        -0.866231
 C         2.494726        -0.145236        -2.420387
 C         2.938923        -1.470406        -2.889285
 O         1.823603        -2.300955        -3.290303
 C         0.642835        -1.710373        -2.755632
 C         0.929785        -0.321859        -2.234910
 H        -0.639877         0.331743         0.033968
 H         0.453530        -0.375696         1.311671
 H         0.626932         1.347357         0.910755
 H         3.334377         0.563957        -0.241571
 H         3.045421         0.673793        -2.870481
 H         3.619488        -1.390646        -3.716062
 H         3.441318        -2.169650        -2.031757
 H        -0.084732        -1.742563        -3.616765
 H         0.355732        -2.339552        -1.961118
 H         0.345989         0.492709        -2.700793
