19
Iteration:  1839
 C         0.272751         0.287624         0.373331
 C         1.294675        -0.245680        -0.604439
 O         2.213894        -1.188916        -0.054498
 C         2.755184        -0.009253        -0.945164
 C         2.448805        -0.125191        -2.457166
 C         2.951183        -1.442339        -3.113146
 O         1.844940        -2.439902        -3.077048
 C         0.594491        -1.648158        -2.959958
 C         0.930494        -0.416940        -2.123734
 H        -0.397293         1.010943        -0.020692
 H        -0.365490        -0.649080         0.853307
 H         0.804879         0.797243         1.339480
 H         3.265611         0.762577        -0.404926
 H         2.677169         0.659846        -3.081461
 H         2.948674        -1.432653        -4.191347
 H         3.835186        -1.891920        -2.701960
 H         0.238667        -1.221158        -3.960553
 H        -0.215953        -2.351568        -2.664815
 H         0.254353         0.441198        -2.314443
