19
Iteration:  2572charge 0 multiplicity 1
 C         0.302932         0.327496         0.319663
 C         1.251041        -0.240437        -0.627883
 O         2.108237        -1.292523        -0.255219
 C         2.667253        -0.036299        -0.892852
 C         2.485248        -0.070360        -2.417171
 C         2.891138        -1.360620        -3.226810
 O         1.957217        -2.392284        -2.980753
 C         0.683549        -1.767592        -2.688330
 C         0.897018        -0.361235        -2.205763
 H         0.165392         1.386698         0.203150
 H        -0.659247        -0.308728         0.154502
 H         0.574341         0.212234         1.325706
 H         3.648894         0.373221        -0.325738
 H         2.791902         0.867017        -2.805811
 H         2.958674        -1.182798        -4.321630
 H         3.865053        -1.648887        -2.868986
 H        -0.034232        -1.872351        -3.577104
 H         0.300554        -2.356781        -1.719963
 H         0.156412         0.461489        -2.639852
