19
Iteration:   166
 C         0.357229         0.312058         0.429021
 C         1.251407        -0.128151        -0.642185
 O         1.985475        -1.303292        -0.460196
 C         2.661496        -0.080172        -0.951330
 C         2.456509        -0.185973        -2.458006
 C         3.026675        -1.434082        -3.047157
 O         1.932181        -2.376388        -3.056151
 C         0.689414        -1.740743        -2.586495
 C         0.887627        -0.245140        -2.173384
 H        -0.426503         1.034996        -0.003258
 H        -0.135396        -0.504973         0.775081
 H         0.787907         0.885237         1.317571
 H         3.656545         0.255589        -0.259570
 H         2.780923         0.684610        -3.044413
 H         3.419370        -1.199880        -4.012488
 H         3.806221        -1.849758        -2.479407
 H         0.041668        -1.578358        -3.449379
 H         0.126194        -2.444462        -2.004440
 H         0.243482         0.485167        -2.654262
