19
Iteration:  4670charge 0 multiplicity 1
 C         0.130080         0.321689         0.194844
 C         1.278990        -0.252821        -0.558246
 O         1.833762        -1.505625        -0.170480
 C         2.727669        -0.473495        -0.629833
 C         2.768044        -0.338224        -2.164911
 C         3.013937        -1.633211        -3.033288
 O         1.720385        -2.148447        -3.375933
 C         0.670135        -1.187014        -2.962479
 C         1.204987        -0.064139        -2.186906
 H         0.160060         0.091938         1.208707
 H        -0.005844         1.497197         0.184357
 H        -0.822339        -0.071658        -0.113716
 H         3.360639         0.009461         0.126848
 H         3.499235         0.525756        -2.540299
 H         3.721989        -1.238275        -3.815611
 H         3.597513        -2.468956        -2.689084
 H         0.196168        -0.708800        -3.939801
 H        -0.185271        -1.795450        -2.409904
 H         1.025465         1.010132        -2.405991
