19
Iteration:  3291
 C         0.194047         0.365521         0.309836
 C         1.239528        -0.267738        -0.640778
 O         2.118409        -1.379422        -0.123885
 C         2.699753        -0.188853        -0.710071
 C         2.580809        -0.137275        -2.291456
 C         2.885636        -1.430346        -3.193457
 O         1.813066        -2.331159        -3.241831
 C         0.675149        -1.590709        -2.788157
 C         1.093818        -0.281091        -2.217353
 H         0.694652         0.659186         1.333903
 H        -0.127820         1.263193        -0.157959
 H        -0.564741        -0.269837         0.198441
 H         3.402222         0.556067        -0.253775
 H         2.910793         0.818319        -2.752482
 H         3.102076        -1.225821        -4.221025
 H         3.706010        -2.033904        -2.880329
 H        -0.237914        -1.424666        -3.568318
 H         0.201332        -2.332857        -2.034037
 H         0.537072         0.586078        -2.655748
