19
Iteration:  2171charge 0 multiplicity 1
 C         0.262164         0.102548         0.424779
 C         1.216577        -0.227640        -0.699757
 O         2.340038        -1.136563        -0.360826
 C         2.622174         0.090254        -0.924539
 C         2.520140        -0.107108        -2.448298
 C         2.926987        -1.518058        -2.818794
 O         1.765358        -2.382172        -3.069344
 C         0.561249        -1.703332        -2.857460
 C         0.988800        -0.333615        -2.251773
 H         0.236692         1.253558         0.490783
 H        -0.736229        -0.412417         0.679499
 H         0.879717        -0.056921         1.298889
 H         3.314981         0.831696        -0.390485
 H         2.879851         0.749588        -3.072242
 H         3.640865        -1.552659        -3.723990
 H         3.562315        -1.991328        -2.027998
 H         0.092940        -1.574154        -3.895188
 H        -0.174248        -2.230818        -2.069168
 H         0.391187         0.517532        -2.729208
