19
Iteration:  2888charge 0 multiplicity 1
 C         0.321835         0.345194         0.411290
 C         1.263652        -0.134774        -0.688597
 O         2.053408        -1.249818        -0.310850
 C         2.723265        -0.082577        -0.938865
 C         2.489840        -0.139664        -2.419807
 C         2.999301        -1.383657        -3.025558
 O         1.858079        -2.292157        -3.229960
 C         0.671476        -1.804553        -2.643186
 C         0.903979        -0.431510        -2.104693
 H        -0.440986         1.157318         0.030282
 H        -0.561928        -0.345287         0.495582
 H         0.858827         0.504418         1.267417
 H         3.535276         0.344208        -0.344304
 H         2.821551         0.741524        -2.928831
 H         3.495245        -1.357057        -4.031295
 H         3.676734        -1.902300        -2.277380
 H        -0.242537        -1.778869        -3.433090
 H         0.436772        -2.512697        -1.889370
 H         0.307119         0.272293        -2.555011
