19
Iteration:   524charge 0 multiplicity 1
 C         0.217741         0.188890         0.347533
 C         1.289941        -0.170260        -0.663561
 O         2.192044        -1.149964        -0.228062
 C         2.764731         0.040375        -0.932988
 C         2.496284        -0.179411        -2.465616
 C         2.985933        -1.501742        -3.119563
 O         1.835175        -2.355837        -3.090599
 C         0.524073        -1.700527        -2.687321
 C         0.967452        -0.339039        -2.130742
 H        -0.685126         0.484652        -0.064390
 H        -0.109695        -0.878361         0.689801
 H         0.614388         0.952875         1.056782
 H         3.578816         0.337910        -0.204904
 H         2.903763         0.701403        -3.072877
 H         3.298073        -1.478904        -4.146254
 H         3.802558        -1.858471        -2.437170
 H        -0.059555        -1.511010        -3.663137
 H        -0.018094        -2.278439        -1.924698
 H         0.239514         0.437215        -2.531694
