19
Iteration:   470charge 0 multiplicity 1
 C         0.318611         0.457996         0.368387
 C         1.206513        -0.147859        -0.630043
 O         2.027823        -1.250790        -0.216202
 C         2.680744        -0.055641        -0.948164
 C         2.464793        -0.237524        -2.357840
 C         2.998686        -1.407946        -3.147487
 O         1.848702        -2.278494        -3.387953
 C         0.783990        -1.891964        -2.565498
 C         0.932409        -0.432545        -2.079136
 H        -0.382397         1.120511        -0.215108
 H        -0.260101        -0.315625         1.052820
 H         0.844553         1.182434         1.100898
 H         3.434853         0.480762        -0.297908
 H         2.674030         0.751977        -2.878034
 H         3.375112        -1.155028        -4.207081
 H         3.816203        -1.874545        -2.491577
 H        -0.243713        -2.095567        -3.042897
 H         0.744602        -2.494829        -1.648627
 H         0.290163         0.322255        -2.624456
