19
Iteration:  1798charge 0 multiplicity 1
 C         0.001846         0.405039        -0.369313
 C         1.342200        -0.041112        -0.107898
 O         2.159768         0.306801         1.103270
 C         2.474474         0.884600        -0.173025
 C         3.426972        -0.048066        -0.882363
 O         4.467756        -0.616441        -0.034854
 C         4.387961        -1.951667         0.026811
 C         2.840362        -2.357507        -0.036784
 C         2.277039        -1.201070        -0.819961
 H        -0.878781         0.235860         0.194656
 H        -0.013074         1.484972        -0.530061
 H        -0.269804         0.256893        -1.434920
 H         2.406867         1.956940        -0.460165
 H         3.702138         0.237131        -1.928298
 H         4.852150        -2.514949        -0.866909
 H         4.849869        -2.232253         0.920012
 H         2.567617        -3.336929        -0.435517
 H         2.598428        -2.345892         1.030795
 H         1.994059        -1.405105        -1.935683
