19
Iteration:   280charge 0 multiplicity 1
 C        -0.039590         0.077248        -0.354587
 C         1.472041        -0.007018        -0.191565
 O         2.358080         0.094376         1.086165
 C         2.667701         0.918988        -0.039131
 C         3.511819        -0.000972        -0.883629
 O         4.534135        -0.703770        -0.342024
 C         4.009887        -1.811681         0.426134
 C         2.585091        -2.127871        -0.111636
 C         2.296394        -0.945668        -0.965858
 H        -0.339615         1.141549        -0.373746
 H        -0.170435        -0.376995        -1.428740
 H        -0.674841        -0.589672         0.408901
 H         2.687503         2.009399        -0.004405
 H         3.711594         0.584843        -1.796239
 H         4.775301        -2.648320         0.398014
 H         4.100091        -1.436019         1.473297
 H         2.585638        -3.102689        -0.714867
 H         1.940147        -2.195987         0.858805
 H         1.941893        -1.210373        -2.006579
