19
Iteration:   552charge 0 multiplicity 1
 C        -0.080190         0.339059        -0.208990
 C         1.401492        -0.020741        -0.220239
 O         2.025001         0.335265         1.055314
 C         2.526733         0.969233        -0.157107
 C         3.481149        -0.104556        -0.852034
 O         4.639104        -0.743712        -0.335317
 C         4.214882        -1.934472         0.406775
 C         2.901196        -2.332719        -0.163106
 C         2.282053        -1.075693        -0.878949
 H        -0.645743        -0.430406         0.237649
 H        -0.066038         1.151566         0.456598
 H        -0.457390         0.684691        -1.146822
 H         2.518909         2.061492        -0.337815
 H         3.734643         0.263045        -1.867871
 H         4.920428        -2.675622         0.196699
 H         4.226570        -1.683865         1.471257
 H         3.057652        -3.106313        -0.918520
 H         2.215196        -2.839339         0.530469
 H         2.005082        -1.306342        -1.979530
