19
Iteration:  4459charge 0 multiplicity 1
 C        -0.138275         0.292225        -0.297337
 C         1.370224        -0.056960        -0.248448
 O         2.167773         0.443133         0.939539
 C         2.516979         0.850059        -0.360171
 C         3.463406        -0.172632        -0.980178
 O         4.457697        -0.596941        -0.151388
 C         4.433170        -2.021214         0.268167
 C         2.851262        -2.134682         0.296441
 C         2.276624        -1.215581        -0.846915
 H        -0.641782        -0.094164        -1.192379
 H        -0.714552         0.067405         0.590312
 H        -0.177736         1.415421        -0.439294
 H         2.558734         1.918196        -0.610458
 H         3.881409        -0.002824        -2.013863
 H         4.805469        -2.542061        -0.627254
 H         4.973205        -2.400566         1.183545
 H         2.556739        -3.201186         0.209068
 H         2.519703        -1.960569         1.350344
 H         1.812330        -1.561031        -1.760171
