19
Iteration:  4802
 C        -0.004270         0.213471        -0.436041
 C         1.450034        -0.008957        -0.180960
 O         2.039841         0.499496         0.939578
 C         2.631284         0.944291        -0.295095
 C         3.347924        -0.206953        -0.964514
 O         4.528612        -0.666812        -0.364568
 C         4.330888        -1.944715         0.325416
 C         2.835755        -2.183778         0.348444
 C         2.235590        -1.208722        -0.709446
 H        -0.200247        -0.128978        -1.494418
 H        -0.579996        -0.513155         0.327692
 H        -0.295914         1.242689        -0.216715
 H         2.834720         2.022016        -0.313945
 H         3.538351         0.004810        -2.022577
 H         4.885137        -2.650766        -0.377460
 H         4.671709        -2.095063         1.344748
 H         2.663710        -3.303899         0.128218
 H         2.453716        -1.892620         1.332246
 H         1.866129        -1.587728        -1.688106
