19
Iteration:  1806charge 0 multiplicity 1
 C        -0.080912         0.488665        -0.369705
 C         1.386178        -0.055091        -0.142914
 O         2.192979         0.321011         1.096588
 C         2.408793         0.912244        -0.196222
 C         3.421035        -0.085753        -0.833930
 O         4.488801        -0.598597        -0.063776
 C         4.398037        -1.996301         0.042318
 C         2.817972        -2.391578        -0.021283
 C         2.322863        -1.143027        -0.856466
 H        -0.843729         0.074733         0.271750
 H        -0.075762         1.538328        -0.251595
 H        -0.278092         0.057461        -1.376963
 H         2.193318         2.012412        -0.376272
 H         3.730327         0.069645        -1.901581
 H         5.068863        -2.577603        -0.644212
 H         4.927967        -2.156372         1.085941
 H         2.713081        -3.333996        -0.651426
 H         2.434999        -2.753672         0.982004
 H         1.993480        -1.567104        -1.831855
