19
Iteration:  2601
 C        -0.012981         0.439021        -0.116536
 C         1.384522        -0.059352        -0.183012
 O         2.319058         0.380000         1.015652
 C         2.496543         0.895826        -0.279085
 C         3.432772        -0.257581        -1.002301
 O         4.473212        -0.639756        -0.087464
 C         4.137028        -1.856494         0.472481
 C         2.906803        -2.395886        -0.340380
 C         2.243176        -1.125952        -0.931253
 H        -0.755749        -0.250435        -0.550627
 H        -0.115767         0.378816         1.041261
 H        -0.204793         1.452586        -0.455796
 H         2.508519         1.958703        -0.267607
 H         3.907875         0.070543        -1.916576
 H         4.988838        -2.567526         0.356801
 H         3.829337        -1.673338         1.511607
 H         3.165627        -2.989739        -1.178385
 H         2.191026        -3.025649         0.249764
 H         1.621701        -1.205728        -1.801488
