19
Iteration:  2574charge 0 multiplicity 1
 C        -0.025910         0.307716         0.109444
 C         1.440669        -0.094494        -0.189864
 O         2.225815         0.352183         0.939305
 C         2.590496         0.978340        -0.339874
 C         3.596379        -0.137996        -1.060729
 O         4.507110        -0.635438        -0.180817
 C         3.877066        -1.804511         0.606666
 C         2.847098        -2.482848        -0.342480
 C         2.349487        -1.114257        -0.983588
 H        -0.868830        -0.223960        -0.382021
 H        -0.066272         0.292951         1.160308
 H        -0.113786         1.400939        -0.195377
 H         2.481959         2.100983        -0.244446
 H         4.028716         0.047570        -2.075027
 H         4.703154        -2.489626         0.623938
 H         3.569761        -1.411029         1.584593
 H         3.366975        -3.205333        -1.069621
 H         2.044698        -3.022113         0.155797
 H         1.890492        -1.116541        -2.016313
