19
Iteration:  2315charge 0 multiplicity 1
 C         0.001518         0.282272        -0.248839
 C         1.443860         0.039355        -0.154413
 O         2.167460         0.388728         1.018097
 C         2.555014         0.929369        -0.260795
 C         3.463786        -0.135430        -0.881947
 O         4.377095        -0.547310         0.067770
 C         4.305126        -2.061420         0.011921
 C         2.774223        -2.353428        -0.030067
 C         2.287705        -1.110379        -0.926468
 H        -0.427035        -0.532704        -0.781051
 H        -0.367955         0.393071         0.741239
 H        -0.328105         1.224100        -0.716283
 H         2.378750         1.956231        -0.387000
 H         3.963781         0.320661        -1.761149
 H         4.979040        -2.472658        -0.838112
 H         4.937180        -2.520998         0.817050
 H         2.629522        -3.343978        -0.385452
 H         2.399047        -2.443063         1.037807
 H         2.004454        -1.451636        -1.923974
