19
Iteration:   110charge 0 multiplicity 1
 C         0.003259         0.176580        -0.308915
 C         1.469135         0.115165        -0.236887
 O         1.966111         0.048387         1.101536
 C         2.708605         0.889794         0.004901
 C         3.486870        -0.045664        -0.924770
 O         4.601229        -0.746577        -0.442949
 C         4.161095        -1.782827         0.406088
 C         2.717945        -2.145534        -0.010088
 C         2.321934        -0.999117        -0.974702
 H        -0.415797         1.115924         0.038892
 H        -0.310188        -0.031074        -1.293901
 H        -0.334321        -0.580513         0.349679
 H         2.847076         1.962271         0.247252
 H         3.747001         0.354910        -1.915231
 H         4.792738        -2.687960         0.262730
 H         4.226162        -1.394581         1.434231
 H         2.720715        -2.959291        -0.632284
 H         2.099646        -2.259671         0.781787
 H         1.985764        -1.190403        -2.005101
