19
Iteration:  3622
 C        -0.106391         0.171354        -0.274699
 C         1.387081         0.108014        -0.438287
 O         1.983965         0.493036         0.925161
 C         2.613922         0.946413        -0.268762
 C         3.503671        -0.150430        -0.845703
 O         4.539921        -0.663032        -0.116612
 C         4.339042        -2.146204        -0.013959
 C         2.798311        -2.121334         0.385446
 C         2.368340        -1.185216        -0.766826
 H        -0.822039         0.241662        -1.132807
 H        -0.287454        -0.795404         0.319182
 H        -0.340152         1.009783         0.445758
 H         2.647931         2.018161        -0.377111
 H         3.739907         0.123738        -1.917910
 H         4.419036        -2.743014        -0.934120
 H         5.032677        -2.536149         0.762139
 H         2.476761        -3.168245         0.280840
 H         2.503688        -1.566810         1.331205
 H         2.259578        -1.657922        -1.763508
