19
Iteration:  2826charge 0 multiplicity 1
 C         0.037398        -0.073803         0.025857
 C         1.528722         0.062454        -0.249440
 O         2.315790         0.408998         0.923887
 C         2.780804         0.986152        -0.333788
 C         3.448524        -0.142107        -1.118406
 O         4.530840        -0.791203        -0.233771
 C         3.908258        -1.718333         0.649110
 C         2.642120        -2.199857        -0.150470
 C         2.229382        -1.068609        -0.960490
 H        -0.383453         0.909009         0.391416
 H        -0.436936        -0.422036        -0.829825
 H        -0.096824        -0.817876         0.815897
 H         2.865145         2.038210        -0.421665
 H         3.779855         0.162743        -2.151430
 H         4.649040        -2.480859         0.945391
 H         3.622230        -1.057113         1.496319
 H         2.905863        -2.959375        -0.841157
 H         1.717784        -2.357858         0.421088
 H         1.801819        -1.381413        -1.947218
