19
Iteration:   131charge 0 multiplicity 1
 C        -0.119759         0.179198        -0.125647
 C         1.383656         0.081640        -0.381844
 O         1.968585         0.208547         0.967135
 C         2.662232         0.904931         0.077840
 C         3.556232        -0.031727        -0.869670
 O         4.747352        -0.755361        -0.406524
 C         4.136035        -1.808161         0.461881
 C         2.726301        -2.257044        -0.127558
 C         2.335943        -1.058499        -1.054172
 H        -0.274990         1.039567         0.473640
 H        -0.751065         0.161230        -0.951454
 H        -0.301799        -0.658544         0.491472
 H         2.996307         1.935988         0.303758
 H         3.902010         0.590384        -1.724396
 H         4.950396        -2.597032         0.488403
 H         3.948039        -1.399807         1.445424
 H         2.684680        -3.206519        -0.579753
 H         2.081063        -2.277395         0.643408
 H         2.008089        -1.301030        -2.067545
