19
Iteration:   355charge 0 multiplicity 1
 C        -0.192905         0.637203        -0.210324
 C         1.255857         0.021096        -0.131636
 O         1.766604         0.362202         1.121360
 C         2.594442         0.861476        -0.134721
 C         3.525582        -0.199011        -0.892163
 O         4.696500        -0.795296        -0.417215
 C         4.343403        -1.890990         0.373198
 C         3.035236        -2.421427        -0.185436
 C         2.388403        -1.197879        -0.898653
 H        -0.377076         1.002197         0.751370
 H        -0.283818         1.390441        -1.001438
 H        -0.844926        -0.200462        -0.395953
 H         2.651881         1.947574        -0.291255
 H         3.900045         0.228087        -1.836857
 H         5.238858        -2.577997         0.295369
 H         4.258978        -1.599661         1.477033
 H         3.111452        -3.244327        -0.766452
 H         2.360783        -2.597505         0.713320
 H         2.029924        -1.484951        -1.978867
