19
Iteration:  3439charge 0 multiplicity 1
 C         0.051275        -0.002907        -0.103940
 C         1.551341         0.041447        -0.082699
 O         2.274589         0.614645         0.974711
 C         2.637018         0.996222        -0.411362
 C         3.427908        -0.208156        -1.099451
 O         4.550552        -0.830328        -0.390779
 C         4.005341        -1.666539         0.685137
 C         2.700720        -2.411361        -0.030422
 C         2.185659        -1.073782        -0.940043
 H        -0.155085         0.142048        -1.131362
 H        -0.260388        -1.019256         0.232249
 H        -0.498818         0.706143         0.514130
 H         2.664987         2.049481        -0.585184
 H         3.821896         0.038194        -2.069461
 H         4.797520        -2.395347         0.951247
 H         3.707745        -1.124038         1.658218
 H         3.091439        -3.183594        -0.734185
 H         1.960809        -2.723697         0.753976
 H         1.825520        -1.462464        -1.870502
