19
Iteration:   199charge 0 multiplicity 1
 C         0.050786         0.223379        -0.287688
 C         1.507014        -0.031374         0.031552
 O         2.311689         0.420196         1.122819
 C         2.543795         0.886636        -0.254568
 C         3.401761        -0.116951        -1.006423
 O         4.412621        -0.589241        -0.066632
 C         4.050096        -1.924540         0.444456
 C         2.918294        -2.385958        -0.501670
 C         2.208335        -1.071584        -0.823559
 H        -0.437455         1.070980         0.227223
 H        -0.014751         0.379356        -1.340058
 H        -0.493324        -0.648591        -0.095986
 H         2.470796         1.979772        -0.314102
 H         3.799391         0.128960        -2.000716
 H         4.899045        -2.585736         0.417402
 H         3.673008        -1.734320         1.490120
 H         3.345533        -2.740726        -1.360453
 H         2.313491        -3.154695        -0.130563
 H         1.560761        -1.272020        -1.723388
