19
Iteration:   410
 C        -0.000581         0.129604        -0.336716
 C         1.447802        -0.089682        -0.050088
 O         2.303143         0.237526         1.087548
 C         2.679306         0.950757        -0.127766
 C         3.436934        -0.077870        -0.980342
 O         4.525473        -0.617586        -0.301710
 C         4.071558        -1.871611         0.405826
 C         2.670316        -2.216480        -0.079179
 C         2.261721        -1.003496        -0.941225
 H        -0.819287         0.028454         0.327559
 H        -0.110491         1.078701        -0.840443
 H        -0.197577        -0.592612        -1.152438
 H         3.056569         2.009752        -0.072722
 H         3.736160         0.355418        -1.958540
 H         4.825241        -2.607411         0.020732
 H         4.117440        -1.677453         1.496708
 H         2.584541        -3.148780        -0.535236
 H         1.854004        -2.252226         0.684177
 H         1.761025        -1.300425        -1.945710
