19
Iteration:   742
 C        -0.007942        -0.155799        -0.157317
 C         1.482115         0.065826        -0.232437
 O         2.429345         0.382325         1.030442
 C         2.635080         0.998029        -0.196961
 C         3.561006        -0.106871        -1.024912
 O         4.540049        -0.695676        -0.249275
 C         3.943711        -1.800523         0.488961
 C         2.589502        -2.220562        -0.113823
 C         2.247788        -0.950470        -0.976752
 H        -0.239625        -1.141068         0.156300
 H        -0.646627         0.464396         0.496366
 H        -0.327079         0.003156        -1.153222
 H         2.582263         2.118406        -0.112897
 H         4.146074         0.111546        -1.931942
 H         4.714276        -2.667182         0.575629
 H         3.695406        -1.449718         1.411245
 H         2.478592        -3.118481        -0.767709
 H         1.749450        -2.443557         0.597897
 H         1.800085        -1.143183        -1.937135
