19
Iteration:  4278
 C        -0.042265         0.314919        -0.234054
 C         1.411574        -0.034827        -0.217453
 O         2.255215         0.338394         1.040850
 C         2.556217         0.847332        -0.424753
 C         3.363752        -0.217097        -1.086170
 O         4.589659        -0.621185        -0.264286
 C         4.231464        -1.759296         0.595163
 C         2.798675        -2.268728         0.020449
 C         2.210641        -1.162023        -0.865323
 H        -0.503490        -0.084049        -1.128536
 H        -0.529379        -0.442638         0.419527
 H        -0.288943         1.353326        -0.304535
 H         2.467600         1.931765        -0.445254
 H         3.771384        -0.108007        -2.072308
 H         4.935552        -2.583194         0.635022
 H         4.271168        -1.379983         1.630055
 H         3.040657        -3.176537        -0.443015
 H         2.088137        -2.317640         0.839847
 H         1.737723        -1.640790        -1.736318
