19
Iteration:  2586
 C         0.030131         0.417683         0.084199
 C         1.457669        -0.077491        -0.141517
 O         2.249841         0.323042         0.921549
 C         2.534644         0.889464        -0.381337
 C         3.465707        -0.048612        -0.945342
 O         4.505601        -0.647497        -0.118876
 C         4.008548        -1.874709         0.546372
 C         2.882250        -2.390867        -0.349923
 C         2.244298        -1.182028        -1.019318
 H        -0.701843        -0.260677        -0.470806
 H        -0.319629         0.511407         1.081552
 H         0.031812         1.429246        -0.443100
 H         2.396441         1.959847        -0.678930
 H         3.908305         0.198765        -1.919913
 H         4.823949        -2.545184         0.706631
 H         3.634849        -1.671984         1.575191
 H         3.352329        -3.057516        -1.139341
 H         2.196976        -3.024364         0.256937
 H         1.976358        -1.482727        -2.051020
