19
Iteration:  2876charge 0 multiplicity 1
 C         0.013555         0.193712         0.027616
 C         1.498354        -0.050754        -0.171175
 O         2.246454         0.543911         0.919883
 C         2.597758         0.884635        -0.453547
 C         3.491680        -0.233264        -1.002401
 O         4.516093        -0.646886        -0.196406
 C         3.990093        -1.859868         0.546136
 C         2.768543        -2.351707        -0.141673
 C         2.273873        -1.137674        -0.969904
 H        -0.083160         0.456459         1.102150
 H        -0.261913         1.026219        -0.694244
 H        -0.685538        -0.644848        -0.249831
 H         2.600968         1.984067        -0.438591
 H         3.803605         0.072417        -1.987876
 H         4.936293        -2.436093         0.532380
 H         3.870010        -1.490860         1.527686
 H         3.017480        -3.285470        -0.769403
 H         1.981664        -2.563858         0.646355
 H         1.880948        -1.140737        -1.993827
