19
Iteration:  2185
 C        -0.058851         0.123279        -0.154219
 C         1.436650         0.034105        -0.277518
 O         2.187416         0.139757         0.971003
 C         2.630684         0.983014        -0.094045
 C         3.505173        -0.051610        -0.919215
 O         4.684786        -0.655989        -0.304372
 C         4.101973        -1.830862         0.439385
 C         2.648087        -2.245168        -0.074058
 C         2.241329        -0.995751        -1.014184
 H        -0.454812        -0.572204         0.609856
 H        -0.461132         1.074422         0.132196
 H        -0.406329        -0.213869        -1.172768
 H         2.855384         2.008053         0.145261
 H         3.820334         0.278231        -1.937058
 H         4.794801        -2.632131         0.394652
 H         3.942917        -1.390417         1.428423
 H         2.763657        -3.145329        -0.698210
 H         1.972837        -2.386559         0.850477
 H         2.027004        -1.298272        -2.022834
