19
Iteration:  1965
 C         0.022238         0.406503        -0.257548
 C         1.390542         0.019696        -0.111879
 O         2.059394         0.303879         1.077491
 C         2.549943         0.929421        -0.157289
 C         3.365392        -0.141590        -0.891431
 O         4.529124        -0.552638        -0.214511
 C         4.282000        -1.936956         0.314343
 C         2.885188        -2.458095        -0.284713
 C         2.295351        -1.164615        -0.853238
 H        -0.614111        -0.191308         0.439034
 H        -0.027123         1.465512         0.133644
 H        -0.389856         0.309537        -1.249050
 H         2.584857         2.042525        -0.307236
 H         3.617035         0.305674        -1.852279
 H         5.182238        -2.651346         0.313631
 H         4.122233        -1.808887         1.367984
 H         3.023527        -3.194266        -1.048262
 H         2.477225        -3.126015         0.469880
 H         1.978353        -1.353902        -1.891686
