19
Iteration:  1850charge 0 multiplicity 1
 C        -0.032405         0.158697        -0.216811
 C         1.454026         0.092216        -0.230177
 O         2.054807         0.433275         1.058921
 C         2.569707         0.985459        -0.150452
 C         3.505544        -0.105140        -0.910365
 O         4.582426        -0.652140        -0.227895
 C         4.229155        -2.043430         0.325939
 C         2.779978        -2.303704        -0.134090
 C         2.297791        -1.095939        -0.908453
 H        -0.390745        -0.745243         0.269927
 H        -0.451665         0.901554         0.437407
 H        -0.652986         0.204650        -1.149893
 H         2.640990         2.102695        -0.249243
 H         3.804009         0.308880        -1.911288
 H         4.926933        -2.728430        -0.197250
 H         4.481560        -2.164202         1.462946
 H         2.653881        -3.274063        -0.708712
 H         2.047244        -2.487897         0.692755
 H         1.965264        -1.197643        -1.970432
