19
Iteration:  1249charge 0 multiplicity 1
 C        -0.102116        -0.065593        -0.209610
 C         1.447945         0.074276        -0.294929
 O         2.174327         0.326166         1.019394
 C         2.620577         1.038062        -0.087262
 C         3.573337        -0.041667        -0.885275
 O         4.609688        -0.635134        -0.106602
 C         4.161592        -2.115173         0.217125
 C         2.610309        -2.135644        -0.035335
 C         2.294161        -0.947768        -1.052012
 H        -0.403091        -0.946036         0.404487
 H        -0.627451         0.818153         0.314072
 H        -0.440689        -0.170381        -1.248285
 H         2.789008         2.100361        -0.080872
 H         4.027475         0.344438        -1.849798
 H         4.821149        -2.704300        -0.551283
 H         4.440417        -2.359855         1.221953
 H         2.211537        -3.228049        -0.279731
 H         2.336253        -1.724405         1.000103
 H         1.899214        -1.189470        -2.088010
