19
Iteration:   820charge 0 multiplicity 1
 C        -0.024639         0.424356        -0.376141
 C         1.405874        -0.050169        -0.002789
 O         2.254350         0.225869         1.139664
 C         2.520282         0.869354        -0.214349
 C         3.360302        -0.132639        -0.984351
 O         4.548047        -0.652716        -0.294459
 C         4.232771        -1.768641         0.456887
 C         2.912631        -2.387363        -0.201201
 C         2.155313        -1.129239        -0.850204
 H        -0.901982        -0.067231        -0.011720
 H         0.054629         1.497097        -0.252758
 H        -0.097297         0.318682        -1.446000
 H         2.401381         1.935880        -0.225478
 H         3.736442         0.105191        -1.985683
 H         5.138011        -2.475925         0.339227
 H         4.036698        -1.593365         1.476363
 H         3.064982        -3.107324        -1.007038
 H         2.259532        -2.764772         0.675084
 H         1.585274        -1.265035        -1.733603
