19
Iteration:  2312
 C         0.023642         0.312006        -0.234879
 C         1.441297         0.031628        -0.140550
 O         2.172113         0.392693         1.026857
 C         2.538303         0.920211        -0.275596
 C         3.421894        -0.140883        -0.912470
 O         4.375867        -0.540573         0.087078
 C         4.344443        -2.063846         0.052336
 C         2.776047        -2.370594        -0.046444
 C         2.290788        -1.114837        -0.954410
 H        -0.389322        -0.578454        -0.742465
 H        -0.385867         0.481247         0.724217
 H        -0.246715         1.259939        -0.672172
 H         2.294694         1.971427        -0.382970
 H         3.884786         0.261727        -1.802424
 H         4.977932        -2.439275        -0.775635
 H         4.830920        -2.598633         0.832258
 H         2.779001        -3.392571        -0.491027
 H         2.344400        -2.378566         0.896494
 H         1.962714        -1.429243        -1.973663
