19
Iteration:  2272
 C        -0.094376         0.371238        -0.117081
 C         1.389442         0.055924        -0.172613
 O         2.139659         0.416402         1.013346
 C         2.539090         0.958027        -0.284455
 C         3.414684        -0.118112        -0.935675
 O         4.573756        -0.605929        -0.050644
 C         4.252181        -2.016773         0.352134
 C         2.906800        -2.465152        -0.301590
 C         2.263155        -1.140857        -0.860463
 H        -0.569061        -0.541540        -0.476263
 H        -0.429403         0.545301         0.903521
 H        -0.499556         1.134549        -0.823848
 H         2.606423         1.983197        -0.495862
 H         3.716000         0.017133        -2.006842
 H         5.106534        -2.682988        -0.049879
 H         4.400623        -2.052716         1.476619
 H         3.030922        -3.075557        -1.171046
 H         2.157073        -3.139865         0.240169
 H         1.878362        -1.210222        -1.874512
