19
Iteration:  3979charge 0 multiplicity 1
 C        -0.100451         0.191136        -0.417751
 C         1.435791        -0.047953        -0.168585
 O         2.284913         0.459646         0.954116
 C         2.516232         0.968574        -0.311784
 C         3.427326        -0.229581        -0.984021
 O         4.542502        -0.544411        -0.133997
 C         4.293525        -1.906304         0.306361
 C         2.800020        -2.284150         0.201583
 C         2.159274        -1.159385        -0.771849
 H        -0.334487         0.384601        -1.512853
 H        -0.694605        -0.678902        -0.186564
 H        -0.404294         1.110481         0.155250
 H         2.603286         2.116956        -0.381957
 H         3.605748        -0.214841        -2.099971
 H         4.746364        -2.526723        -0.543200
 H         4.806484        -2.223878         1.241109
 H         2.752561        -3.208131        -0.346079
 H         2.356121        -2.374771         1.199945
 H         1.810588        -1.736326        -1.610153
