19
Iteration:   405
 C         0.003513         0.191111        -0.374818
 C         1.462842        -0.061350        -0.029123
 O         2.293789         0.227134         1.083284
 C         2.652859         0.931981        -0.146885
 C         3.380762        -0.071822        -0.977782
 O         4.500200        -0.610275        -0.294579
 C         4.100429        -1.882164         0.372164
 C         2.694092        -2.236460        -0.062174
 C         2.279814        -1.043721        -0.915753
 H        -0.760235         0.120850         0.462371
 H         0.019676         1.165152        -0.904207
 H        -0.149481        -0.579388        -1.143686
 H         2.885319         1.963560         0.044314
 H         3.761956         0.294983        -1.937223
 H         4.894309        -2.581939         0.098548
 H         4.115355        -1.709730         1.447722
 H         2.727698        -3.214771        -0.679053
 H         1.943376        -2.301250         0.723607
 H         1.832822        -1.290830        -1.837315
