19
Iteration:  1417
 C        -0.048727         0.124356        -0.438522
 C         1.408213         0.180936        -0.273238
 O         1.830531         0.279002         1.072257
 C         2.639231         0.959823         0.125519
 C         3.543781        -0.030978        -0.807196
 O         4.718089        -0.727951        -0.388891
 C         4.280953        -2.123049        -0.003365
 C         2.770102        -2.154705         0.167823
 C         2.285699        -1.010237        -0.803968
 H        -0.440875        -0.568199         0.315042
 H        -0.398014         1.061563        -0.122467
 H        -0.342128        -0.110936        -1.461264
 H         2.660075         2.024265         0.285503
 H         3.799069         0.493356        -1.750503
 H         4.618272        -2.708291        -0.831166
 H         4.659225        -2.415935         0.966059
 H         2.356129        -3.230741        -0.025252
 H         2.587651        -1.736249         1.163324
 H         2.032520        -1.310525        -1.800719
