19
Iteration:   231charge 0 multiplicity 1
 C        -0.078403         0.213407        -0.073138
 C         1.387030        -0.007070        -0.257336
 O         2.041343         0.513865         1.022852
 C         2.584109         0.904572        -0.200560
 C         3.520153        -0.045103        -0.768659
 O         4.615911        -0.754805        -0.175789
 C         4.111025        -1.962722         0.400192
 C         2.865134        -2.397031        -0.413538
 C         2.356523        -1.065679        -0.951277
 H        -0.180686         1.133846         0.500494
 H        -0.664978         0.186415        -0.922255
 H        -0.358235        -0.562627         0.542737
 H         2.665185         1.997536        -0.368475
 H         3.798663         0.398552        -1.746998
 H         4.969753        -2.630227         0.446626
 H         3.827381        -1.749773         1.458192
 H         3.150070        -3.056267        -1.193780
 H         2.158700        -2.826809         0.192980
 H         2.034663        -1.050542        -2.012336
