19
Iteration:  3010charge 0 multiplicity 1
 C        -0.028400         0.312361        -0.268812
 C         1.479476        -0.013174        -0.192465
 O         2.118974         0.278928         0.981963
 C         2.676720         0.895672        -0.129619
 C         3.459329        -0.171529        -1.005100
 O         4.630709        -0.882084        -0.646821
 C         4.149737        -1.684507         0.545236
 C         2.728466        -2.159834         0.236001
 C         2.217967        -1.154642        -0.872590
 H        -0.734977        -0.507697        -0.671907
 H        -0.283315         0.521709         0.764883
 H        -0.329406         1.170705        -0.924516
 H         2.783740         1.992923        -0.236951
 H         3.372022         0.311982        -1.978649
 H         4.951075        -2.424673         0.568273
 H         4.028214        -1.089449         1.443470
 H         2.820200        -3.162306        -0.236492
 H         2.261299        -2.201302         1.247603
 H         1.806579        -1.597635        -1.827821
