19
Iteration:  3320charge 0 multiplicity 1
 C        -0.148268         0.137726        -0.258470
 C         1.478019         0.130412        -0.190854
 O         2.098860         0.452543         1.006788
 C         2.634565         0.971884        -0.264849
 C         3.474464        -0.181989        -0.976896
 O         4.709312        -0.774383        -0.437474
 C         4.200188        -1.862604         0.412742
 C         2.692523        -2.283416         0.177537
 C         2.267843        -1.126134        -0.857611
 H        -0.372888        -0.466048        -1.117973
 H        -0.461268        -0.235619         0.781537
 H        -0.506024         1.196020        -0.318182
 H         2.702811         2.061190        -0.222192
 H         3.702902         0.294224        -1.964208
 H         4.818174        -2.709786         0.104410
 H         4.362361        -1.829669         1.516361
 H         2.630258        -3.239311        -0.400997
 H         2.073365        -2.250277         1.097794
 H         1.797812        -1.430315        -1.815875
