19
Iteration:  1181charge 0 multiplicity 1
 C        -0.001283         0.528740        -0.565779
 C         1.350141        -0.069666        -0.062955
 O         1.895494         0.254114         1.188774
 C         2.546714         0.788844         0.030643
 C         3.426939        -0.166356        -0.884286
 O         4.631993        -0.653056        -0.546871
 C         4.380485        -1.841287         0.283066
 C         2.949303        -2.370714         0.016803
 C         2.231020        -1.136014        -0.731978
 H        -1.014266         0.163201        -0.173515
 H         0.032733         1.515509        -0.112367
 H        -0.046940         0.680006        -1.666376
 H         2.512096         1.886939         0.015646
 H         3.538440         0.415421        -1.816697
 H         5.138368        -2.609995        -0.020528
 H         4.574505        -1.495857         1.311342
 H         3.017014        -3.049651        -0.800903
 H         2.337533        -2.830625         0.866961
 H         1.729443        -1.437084        -1.618422
