19
Iteration:   678charge 0 multiplicity 1
 C        -0.174602         0.515214        -0.020161
 C         1.316452        -0.004373        -0.224965
 O         2.034777         0.439634         0.929875
 C         2.545474         0.869342        -0.256173
 C         3.478515        -0.164673        -0.849606
 O         4.607431        -0.755188        -0.283194
 C         4.215054        -1.862163         0.518770
 C         3.017195        -2.521456        -0.263731
 C         2.324140        -1.179576        -0.927880
 H        -0.850068        -0.154046         0.666765
 H         0.022252         1.609246         0.281051
 H        -0.633895         0.556803        -1.039218
 H         2.666702         1.989606        -0.238433
 H         3.740054         0.300092        -1.810477
 H         5.223552        -2.451775         0.559205
 H         3.984599        -1.513268         1.538402
 H         3.494371        -2.997023        -1.134792
 H         2.298082        -3.233292         0.300568
 H         1.971827        -1.224170        -1.911814
