19
Iteration:  1299charge 0 multiplicity 1
 C        -0.090603         0.207369        -0.138755
 C         1.436947        -0.008585        -0.133391
 O         2.191646         0.664414         0.977931
 C         2.511446         0.957824        -0.328346
 C         3.556744        -0.158598        -0.878364
 O         4.347897        -0.646151         0.260892
 C         4.345059        -2.018786         0.017437
 C         2.791929        -2.462430        -0.325847
 C         2.313370        -1.130969        -0.884062
 H        -0.615373        -0.686703         0.233415
 H        -0.239205         0.825810         0.709433
 H        -0.522294         0.629776        -1.040307
 H         2.396991         2.006977        -0.588562
 H         4.224662         0.098798        -1.686525
 H         4.976064        -2.289146        -0.807543
 H         4.653163        -2.439598         1.020743
 H         2.855938        -3.183890        -1.059840
 H         2.298392        -2.874596         0.549439
 H         1.818798        -1.328517        -1.801639
