19
Iteration:  3700
 C         0.003798         0.261305        -0.226084
 C         1.436744         0.060939        -0.134786
 O         2.147658         0.549816         0.996028
 C         2.505691         0.932874        -0.381919
 C         3.420203        -0.214404        -0.969495
 O         4.501789        -0.633229        -0.203419
 C         4.275326        -1.879367         0.444650
 C         2.858706        -2.479004        -0.114162
 C         2.230830        -1.162661        -0.767920
 H        -0.487697        -0.228403        -1.073289
 H        -0.482600        -0.267891         0.703074
 H        -0.158683         1.349453        -0.106281
 H         2.654625         1.917815        -0.879258
 H         3.796729        -0.154673        -2.033696
 H         5.130640        -2.544472         0.244079
 H         4.096480        -1.805840         1.540047
 H         3.036920        -3.254598        -0.944539
 H         2.271885        -2.925557         0.732801
 H         1.836216        -1.308024        -1.786983
