19
Iteration:   308charge 0 multiplicity 1
 C         0.078745         0.274436        -0.441093
 C         1.467872         0.048071        -0.076455
 O         2.116708         0.137744         1.217178
 C         2.679337         0.897952        -0.034574
 C         3.422063        -0.078758        -1.003102
 O         4.556528        -0.662264        -0.412452
 C         4.134025        -1.823505         0.425016
 C         2.739808        -2.275162        -0.115932
 C         2.209085        -1.068423        -0.915077
 H        -0.335223         1.232472        -0.182662
 H         0.083395         0.167350        -1.495978
 H        -0.484896        -0.497063        -0.055999
 H         2.777542         1.971601         0.079458
 H         3.597722         0.459583        -1.953786
 H         4.919050        -2.537569         0.376705
 H         4.117355        -1.408225         1.454294
 H         2.826272        -3.120042        -0.765733
 H         2.143579        -2.542456         0.728158
 H         1.676413        -1.366963        -1.843809
