19
Iteration:  4814
 C        -0.031625         0.268576        -0.415223
 C         1.374199         0.010005        -0.331061
 O         2.035873         0.450374         0.991725
 C         2.568090         0.871627        -0.242323
 C         3.412616        -0.212848        -0.950245
 O         4.576971        -0.677574        -0.341959
 C         4.392768        -1.951987         0.269578
 C         2.823525        -2.092407         0.364531
 C         2.262369        -1.252791        -0.731582
 H        -0.509810        -0.074569        -1.354048
 H        -0.691709        -0.252558         0.442626
 H        -0.224305         1.345179        -0.422764
 H         2.856486         1.899010        -0.332078
 H         3.579994         0.166716        -1.964852
 H         4.739056        -2.940993        -0.208206
 H         5.035228        -1.666976         1.081836
 H         2.381713        -3.158595         0.240632
 H         2.450388        -1.762238         1.341039
 H         1.816675        -1.930598        -1.512006
