19
Iteration:  2332
 C        -0.115838         0.156511        -0.289015
 C         1.427504         0.003808        -0.267509
 O         2.102842         0.408391         0.994987
 C         2.626780         1.010477        -0.201135
 C         3.512055        -0.044248        -0.849276
 O         4.530538        -0.697416         0.035750
 C         4.290967        -2.026996        -0.082834
 C         2.753364        -2.235225         0.053035
 C         2.296527        -1.096697        -0.764296
 H        -0.563626        -0.676843        -0.927699
 H        -0.610839         0.152089         0.737974
 H        -0.309993         1.186668        -0.627640
 H         2.835499         2.119953        -0.125331
 H         3.810982        -0.018090        -1.901336
 H         4.571631        -2.427169        -1.041822
 H         4.783265        -2.677050         0.669734
 H         2.461354        -3.241662        -0.432452
 H         2.389184        -1.978043         1.017709
 H         1.866382        -1.352870        -1.758401
