19
Iteration:   994charge 0 multiplicity 1
 C        -0.130395         0.367899         0.035375
 C         1.392080         0.040171        -0.144864
 O         2.196805         0.703568         0.936472
 C         2.426860         0.962128        -0.460070
 C         3.492271        -0.162906        -0.849766
 O         4.425360        -0.671464         0.115186
 C         4.300667        -2.171213         0.289428
 C         2.972857        -2.529598        -0.487496
 C         2.283783        -1.157010        -0.858192
 H        -0.365513        -0.104405         0.982997
 H        -0.190550         1.384452         0.380338
 H        -0.768110         0.154223        -0.801874
 H         2.440013         2.014152        -0.731942
 H         3.966417         0.139000        -1.804115
 H         5.271630        -2.648296        -0.118377
 H         4.374004        -2.442929         1.309025
 H         3.127460        -3.091745        -1.401383
 H         2.228966        -3.140957         0.196310
 H         1.961914        -1.291097        -1.843903
