19
Iteration:  3996
 C        -0.061864         0.278188        -0.257975
 C         1.418730         0.031458        -0.196544
 O         2.156337         0.374045         0.965778
 C         2.608732         0.790414        -0.406579
 C         3.443358        -0.164564        -1.029158
 O         4.452872        -0.526231        -0.122965
 C         4.316655        -1.868907         0.302949
 C         2.802043        -2.253036         0.195067
 C         2.287504        -1.288381        -0.846195
 H        -0.336219         0.434557        -1.304406
 H        -0.618643        -0.632716         0.065889
 H        -0.297428         1.253612         0.158528
 H         2.600414         1.853597        -0.470581
 H         3.875172         0.093629        -2.029693
 H         4.946569        -2.544932        -0.257131
 H         4.559999        -1.742152         1.348233
 H         2.633915        -3.331534        -0.110885
 H         2.175894        -2.036290         1.070030
 H         1.794236        -1.543723        -1.813757
