19
Iteration:   955charge 0 multiplicity 1
 C        -0.007626         0.202951        -0.179798
 C         1.460619         0.062266        -0.137929
 O         2.240907         0.438360         1.070968
 C         2.549083         1.003613        -0.307133
 C         3.439928        -0.084008        -0.955599
 O         4.449713        -0.654120        -0.120180
 C         4.221942        -2.092793         0.296736
 C         2.788697        -2.357562        -0.168858
 C         2.263932        -1.050279        -0.892965
 H        -0.447240        -0.509751         0.561335
 H        -0.292545         1.232005         0.081064
 H        -0.483043        -0.081421        -1.166338
 H         2.641431         2.116293        -0.337971
 H         3.884306         0.155563        -1.937443
 H         4.963700        -2.725116        -0.186788
 H         4.333434        -2.090584         1.415582
 H         2.825224        -3.150029        -0.935980
 H         2.109433        -2.791395         0.574884
 H         1.681671        -1.237230        -1.849709
