19
Iteration:   512
 C         0.102776         0.303840        -0.264892
 C         1.458864        -0.055942        -0.096746
 O         2.420187         0.334202         1.136276
 C         2.584055         0.881951        -0.272245
 C         3.336256        -0.148201        -1.022643
 O         4.327305        -0.548819        -0.130758
 C         4.039950        -1.826635         0.492418
 C         2.925622        -2.345476        -0.324447
 C         2.161910        -1.187116        -0.883580
 H        -0.663148        -0.537597        -0.427890
 H        -0.358597         0.990703         0.505565
 H         0.092537         0.896423        -1.288402
 H         2.405702         1.914922        -0.221826
 H         3.728928         0.054239        -2.018778
 H         5.037330        -2.549136         0.373878
 H         3.862599        -1.811921         1.549422
 H         3.418315        -2.919210        -1.189930
 H         2.381222        -3.098970         0.207845
 H         1.685469        -1.303239        -1.823144
