19
Iteration:  2811
 C         0.022999         0.020062        -0.041734
 C         1.517280         0.066933        -0.193450
 O         2.273631         0.494632         0.997162
 C         2.644196         0.943883        -0.319876
 C         3.600901        -0.163584        -1.005155
 O         4.602792        -0.754574        -0.353864
 C         3.880671        -1.703911         0.556294
 C         2.627295        -2.344579        -0.102672
 C         2.229576        -1.067324        -0.978723
 H        -0.496952         0.986132         0.000512
 H        -0.390580        -0.740603        -0.797488
 H        -0.135622        -0.459131         0.967141
 H         2.796913         2.055810        -0.445746
 H         3.999855         0.110183        -1.971567
 H         4.587048        -2.543331         0.714235
 H         3.614863        -1.301634         1.497770
 H         2.886159        -3.261547        -0.697494
 H         2.025119        -2.795276         0.658831
 H         1.687876        -1.232823        -1.927561
