19
Iteration:  3267
 C        -0.049713         0.325200        -0.512629
 C         1.376778         0.019784        -0.131925
 O         2.069891         0.315688         1.077622
 C         2.634128         0.824214        -0.176856
 C         3.450292        -0.195584        -0.952405
 O         4.635846        -0.793749        -0.654989
 C         4.306170        -1.798778         0.399246
 C         2.786859        -2.147366         0.315958
 C         2.226942        -1.150945        -0.695666
 H        -0.163827         0.725413        -1.542506
 H        -0.609252        -0.618374        -0.174421
 H        -0.509010         1.172904         0.077107
 H         2.613863         1.908045        -0.066821
 H         3.493733         0.254690        -1.996119
 H         4.985380        -2.617201         0.197510
 H         4.377450        -1.330730         1.391314
 H         2.337179        -3.062941        -0.079030
 H         2.428685        -1.927565         1.313520
 H         1.844909        -1.714218        -1.563927
