19
Iteration:  3326charge 0 multiplicity 1
 C        -0.125182         0.167912        -0.242777
 C         1.419677         0.082534        -0.174341
 O         2.169121         0.471834         0.988164
 C         2.621152         0.982489        -0.254559
 C         3.496069        -0.203419        -0.998066
 O         4.650299        -0.749552        -0.376224
 C         4.214530        -1.879696         0.429197
 C         2.704863        -2.272125         0.115102
 C         2.248558        -1.129732        -0.860284
 H        -0.472858        -0.550162        -1.024704
 H        -0.556763        -0.253386         0.633088
 H        -0.469690         1.185407        -0.345951
 H         2.673419         2.080641        -0.226316
 H         3.797170         0.099612        -1.993773
 H         4.909243        -2.671458         0.064057
 H         4.518130        -1.634250         1.471968
 H         2.499655        -3.174247        -0.469672
 H         2.022819        -2.348097         0.989673
 H         1.882171        -1.592201        -1.788692
