19
Iteration:  2840charge 0 multiplicity 1
 C         0.062985        -0.033119         0.077547
 C         1.468579         0.071987        -0.238196
 O         2.383677         0.356551         0.826023
 C         2.656748         1.005210        -0.391792
 C         3.521995        -0.159219        -1.047353
 O         4.447042        -0.754190        -0.270363
 C         3.869123        -1.744421         0.718866
 C         2.705461        -2.215679        -0.094187
 C         2.266514        -0.987635        -1.051115
 H        -0.340616         0.694167         0.723694
 H        -0.590728         0.084844        -0.850614
 H        -0.067085        -1.009168         0.516294
 H         2.948023         2.091555        -0.283031
 H         4.022289        -0.068901        -2.028151
 H         4.620742        -2.540821         0.750880
 H         3.622248        -1.455959         1.780534
 H         3.002502        -3.162877        -0.629465
 H         1.956524        -2.633326         0.691817
 H         1.786815        -1.208163        -1.986292
