19
Iteration:  2367
 C        -0.036856         0.053843        -0.452034
 C         1.459363         0.056286        -0.243979
 O         1.881423         0.557603         1.128624
 C         2.588155         1.032689        -0.041618
 C         3.530006        -0.020898        -0.794623
 O         4.621492        -0.845340        -0.250502
 C         4.273156        -2.205039        -0.130239
 C         2.762878        -2.116389         0.172996
 C         2.364752        -1.032083        -0.742023
 H        -0.444086        -0.239600        -1.462880
 H        -0.376186        -0.642143         0.298167
 H        -0.472165         1.064636        -0.345755
 H         2.634462         2.090185        -0.064739
 H         3.772104         0.400676        -1.767070
 H         4.500301        -2.693908        -1.087402
 H         4.797969        -2.600075         0.728915
 H         2.367286        -3.128275         0.284395
 H         2.670708        -1.765374         1.166365
 H         2.065820        -1.428859        -1.736647
