19
Iteration:   299
 C         0.060274         0.203584        -0.471562
 C         1.509836         0.034337        -0.057102
 O         2.230672         0.126595         1.228889
 C         2.647003         0.900756         0.021126
 C         3.413354        -0.038445        -1.063907
 O         4.604005        -0.630328        -0.394128
 C         4.069737        -1.781591         0.420563
 C         2.665831        -2.276402        -0.090745
 C         2.182914        -1.042180        -0.969182
 H        -0.370513         1.148016        -0.330252
 H         0.002315        -0.066169        -1.536310
 H        -0.503394        -0.519605         0.039864
 H         2.820486         1.932502         0.222368
 H         3.878718         0.294276        -1.998816
 H         4.780757        -2.576506         0.321918
 H         3.943429        -1.577443         1.559733
 H         2.738405        -3.136040        -0.573931
 H         1.912219        -2.375367         0.743065
 H         1.724759        -1.398189        -1.992790
