19
Iteration:  3492charge 0 multiplicity 1
 C        -0.093120         0.348409        -0.219073
 C         1.453978        -0.029487        -0.293189
 O         2.024851         0.304099         1.003500
 C         2.651162         0.869561        -0.293574
 C         3.486409        -0.230778        -1.105638
 O         4.623520        -0.687656        -0.449564
 C         4.257540        -1.740113         0.508757
 C         2.797881        -2.188566         0.211549
 C         2.251121        -1.205796        -0.845875
 H        -0.668857         0.037873        -1.067200
 H        -0.506812        -0.327992         0.546343
 H        -0.139673         1.397042         0.063863
 H         2.632170         1.910388        -0.074404
 H         3.724853         0.090594        -2.103714
 H         4.885989        -2.589338         0.282225
 H         4.261956        -1.444144         1.580834
 H         2.588056        -3.249319        -0.021276
 H         2.284576        -2.029803         1.224471
 H         1.771426        -1.870306        -1.589263
