19
Iteration:  3825
 C        -0.088461         0.273737        -0.287410
 C         1.414875         0.016475        -0.144441
 O         1.955566         0.574954         1.005964
 C         2.591524         0.923181        -0.284572
 C         3.446799        -0.246315        -0.976223
 O         4.629967        -0.676947        -0.272196
 C         4.395181        -1.894234         0.293352
 C         2.838611        -2.347943         0.103599
 C         2.266720        -1.246887        -0.817406
 H        -0.303096         0.436316        -1.384066
 H        -0.766863        -0.400360         0.221974
 H        -0.284325         1.291262         0.175944
 H         2.381445         1.978774        -0.390536
 H         3.650008         0.090008        -1.987378
 H         4.955229        -2.807844        -0.003317
 H         4.594673        -1.722561         1.365553
 H         2.767677        -3.434326        -0.250468
 H         2.201873        -2.351479         0.981254
 H         1.916242        -1.510527        -1.835312
