19
Iteration:  1742charge 0 multiplicity 1
 C        -0.111614         0.104818        -0.394858
 C         1.382835         0.032746        -0.218661
 O         1.893263         0.455533         1.117622
 C         2.516790         1.048700        -0.052757
 C         3.558211        -0.039638        -0.764751
 O         4.734082        -0.793158        -0.189264
 C         4.306539        -2.206784        -0.154809
 C         2.765242        -2.114257         0.180348
 C         2.362236        -1.023920        -0.824762
 H        -0.680571        -0.746367        -0.039175
 H        -0.449615         0.994931         0.123722
 H        -0.341845         0.193213        -1.521836
 H         2.663503         2.167278        -0.154182
 H         3.828189         0.208267        -1.818461
 H         4.586151        -2.713126        -1.118026
 H         4.861241        -2.615370         0.702965
 H         2.110206        -2.897632        -0.250123
 H         2.671033        -1.776933         1.222068
 H         2.213866        -1.361387        -1.946133
