19
Iteration:  2303charge 0 multiplicity 1
 C         0.019519         0.377429        -0.186740
 C         1.443959        -0.049809        -0.128480
 O         2.179367         0.403401         1.038578
 C         2.503242         0.950300        -0.288933
 C         3.393857        -0.115359        -0.961400
 O         4.390149        -0.574919         0.117175
 C         4.371056        -2.019346         0.146669
 C         2.847195        -2.390159        -0.159217
 C         2.269571        -1.185121        -0.958897
 H        -0.581068        -0.401162        -0.645182
 H        -0.419479         0.480343         0.745094
 H        -0.022027         1.255599        -0.829034
 H         2.459844         1.995328        -0.456049
 H         3.809711        -0.007985        -1.974032
 H         4.904417        -2.363740        -0.799813
 H         4.635931        -2.404170         1.127160
 H         2.776859        -3.306487        -0.697968
 H         2.216830        -2.356670         0.722630
 H         1.786861        -1.289730        -1.946288
