19
Iteration:  3202
 C        -0.073085         0.420773        -0.234615
 C         1.403418        -0.000836        -0.158623
 O         2.136841         0.453313         0.952392
 C         2.568562         0.843711        -0.373779
 C         3.432454        -0.273940        -1.035143
 O         4.655585        -0.776887        -0.489330
 C         4.186853        -1.731520         0.648578
 C         2.848334        -2.308079         0.077375
 C         2.171778        -1.265289        -0.770843
 H        -0.249151         0.932570        -1.222696
 H        -0.692973        -0.496972         0.030578
 H        -0.243899         1.147153         0.608115
 H         2.724698         1.929857        -0.476170
 H         3.725663         0.086530        -2.060577
 H         5.078141        -2.382065         0.780436
 H         4.043012        -1.201773         1.623858
 H         3.378576        -3.020268        -0.549822
 H         2.364432        -2.766149         0.925828
 H         1.596063        -1.606740        -1.639169
