19
Iteration:  3026
 C        -0.065860         0.362961        -0.277736
 C         1.395932         0.026614        -0.195508
 O         2.219144         0.400813         1.058695
 C         2.583861         0.921831        -0.241576
 C         3.396062        -0.169730        -1.018756
 O         4.588263        -0.854851        -0.542094
 C         4.196440        -1.726447         0.533795
 C         2.825544        -2.356445         0.075276
 C         2.240356        -1.188091        -0.756454
 H        -0.639918        -0.440053        -0.675589
 H        -0.482413         0.617692         0.748573
 H        -0.142339         1.171032        -1.022927
 H         2.677466         2.008500        -0.261979
 H         3.761299        -0.007706        -2.048342
 H         4.957599        -2.506880         0.737498
 H         4.127136        -0.950718         1.350972
 H         2.870287        -3.330646        -0.410416
 H         2.085950        -2.536485         0.855110
 H         1.866288        -1.546530        -1.698319
