19
Iteration:  1708
 C        -0.034633         0.058025        -0.481529
 C         1.445816         0.081179        -0.200343
 O         1.973364         0.443599         1.129356
 C         2.677388         1.032925        -0.016961
 C         3.437324        -0.032342        -0.787136
 O         4.604846        -0.707466        -0.253619
 C         4.302064        -2.114190        -0.081773
 C         2.723504        -2.212338         0.154365
 C         2.282456        -1.068151        -0.769432
 H        -0.427274        -0.942982        -0.504424
 H        -0.580879         0.678022         0.180396
 H        -0.135988         0.572357        -1.482555
 H         2.860967         2.113428        -0.015488
 H         3.640609         0.371514        -1.812699
 H         4.699650        -2.742715        -0.917491
 H         4.881229        -2.436311         0.853041
 H         2.159327        -3.136049        -0.167268
 H         2.357170        -2.094965         1.198517
 H         2.147603        -1.426279        -1.861251
