19
Iteration:  1237charge 0 multiplicity 1
 C        -0.051791         0.006700        -0.264780
 C         1.435929         0.100111        -0.225581
 O         2.073943         0.247043         1.032315
 C         2.657366         0.951851        -0.107455
 C         3.520920        -0.025055        -0.812030
 O         4.671379        -0.668228        -0.224774
 C         4.135856        -2.011363         0.163434
 C         2.634545        -2.048205         0.015307
 C         2.360649        -1.022418        -0.982301
 H        -0.258132        -0.871861         0.441009
 H        -0.607147         0.938907         0.070859
 H        -0.475460        -0.301365        -1.233529
 H         2.749592         1.998920         0.027378
 H         3.812319         0.493461        -1.767340
 H         4.615974        -2.844742        -0.481401
 H         4.406467        -2.136141         1.204334
 H         2.223106        -3.073727        -0.279503
 H         1.982809        -1.854472         0.957206
 H         2.173801        -1.356616        -2.021137
