19
Iteration:  3957charge 0 multiplicity 1
 C        -0.031411         0.140425        -0.424711
 C         1.449539         0.032445        -0.101686
 O         2.090452         0.577884         1.009054
 C         2.515857         0.980301        -0.365542
 C         3.441087        -0.156158        -0.920328
 O         4.509924        -0.657346        -0.195314
 C         4.353052        -2.025440         0.169925
 C         2.775910        -2.305681         0.189443
 C         2.276147        -1.126414        -0.678699
 H        -0.155248         0.143629        -1.548398
 H        -0.416643        -0.843751        -0.186098
 H        -0.651557         0.944656         0.053414
 H         2.746036         1.978043        -0.835414
 H         3.710806         0.274118        -1.900328
 H         4.950403        -2.734201        -0.498948
 H         4.753870        -2.157103         1.194003
 H         2.478208        -3.292916        -0.143351
 H         2.570780        -2.130297         1.241639
 H         1.904258        -1.702979        -1.531882
