19
Iteration:  3124
 C         0.054241        -0.019429         0.110983
 C         1.510057         0.090910        -0.286570
 O         2.349498         0.573442         0.794996
 C         2.699810         1.021373        -0.535960
 C         3.459054        -0.126540        -1.103251
 O         4.466941        -0.690691        -0.086676
 C         3.986475        -1.892489         0.623347
 C         2.628980        -2.320454        -0.037851
 C         2.254718        -1.147391        -0.957473
 H        -0.371886        -0.927426        -0.347060
 H         0.054957        -0.141836         1.273773
 H        -0.578372         0.768581        -0.377872
 H         2.670214         2.087383        -0.665666
 H         4.033229         0.137711        -2.052246
 H         4.783206        -2.548579         0.311256
 H         3.760828        -1.786161         1.716690
 H         2.665381        -3.248957        -0.614130
 H         1.928853        -2.582677         0.787218
 H         1.741357        -1.471476        -1.856446
