19
Iteration:  4029charge 0 multiplicity 1
 C        -0.114057         0.268768        -0.145978
 C         1.381158        -0.017997        -0.385878
 O         2.106856         0.380423         0.856028
 C         2.517822         0.854557        -0.398259
 C         3.539861        -0.055952        -0.932787
 O         4.656334        -0.659055        -0.206285
 C         4.280614        -1.884179         0.422433
 C         2.759013        -2.235228         0.230159
 C         2.281719        -1.193882        -0.887847
 H        -0.751674         0.071708        -1.018759
 H        -0.515659        -0.314835         0.730251
 H        -0.250074         1.287105         0.277537
 H         2.322882         1.918929        -0.405481
 H         3.704387         0.303238        -1.969975
 H         4.829967        -2.717075         0.039060
 H         4.640858        -1.959750         1.450390
 H         2.765043        -3.222725        -0.350032
 H         2.121827        -2.292163         1.122989
 H         2.036343        -1.776541        -1.826633
