19
Iteration:  1551charge 0 multiplicity 1
 C        -0.087348        -0.037995        -0.246854
 C         1.407851         0.191070        -0.274576
 O         2.126195         0.487985         1.049481
 C         2.664303         1.051188        -0.163480
 C         3.491149        -0.118595        -0.837039
 O         4.536985        -0.702877        -0.063242
 C         4.248134        -2.098024         0.101166
 C         2.712500        -2.252926        -0.008452
 C         2.306783        -0.997716        -0.976650
 H        -0.394974        -0.663814         0.564960
 H        -0.766965         0.812840        -0.029156
 H        -0.397948        -0.565347        -1.074440
 H         3.028517         2.106434        -0.264719
 H         3.872786         0.053311        -1.862688
 H         4.764835        -2.709537        -0.636523
 H         4.563031        -2.544266         1.108685
 H         2.428343        -3.281374        -0.374580
 H         2.234556        -1.894787         0.941588
 H         2.000439        -1.038268        -1.998213
