19
Iteration:    45charge 0 multiplicity 1
 C         0.029194         0.498217        -0.302255
 C         1.371678        -0.060556        -0.141828
 O         1.859094         0.348860         1.089028
 C         2.620195         0.860842        -0.097623
 C         3.378594        -0.160981        -0.902778
 O         4.663033        -0.724559        -0.364701
 C         4.333266        -1.888490         0.374690
 C         2.976053        -2.339763        -0.206341
 C         2.158117        -1.141096        -0.750494
 H        -0.150622         1.261507         0.475883
 H        -0.107933         0.897234        -1.302773
 H        -0.732519        -0.269453        -0.185044
 H         2.601226         1.917098        -0.392049
 H         3.576977         0.325128        -1.854468
 H         5.130972        -2.614699         0.257395
 H         4.190655        -1.707950         1.459857
 H         3.308942        -2.752032        -1.118997
 H         2.560850        -3.129082         0.371289
 H         1.718752        -1.471424        -1.697978
