19
Iteration:  3152charge 0 multiplicity 1
 C         0.015636        -0.067208        -0.001955
 C         1.536364         0.039926        -0.219879
 O         2.388322         0.495251         0.904089
 C         2.639204         0.955806        -0.479702
 C         3.506170        -0.216498        -1.124897
 O         4.582263        -0.776467        -0.253377
 C         3.910984        -1.705325         0.639116
 C         2.566659        -2.184083        -0.004965
 C         2.261172        -1.071153        -0.904693
 H        -0.416338        -0.628837        -0.828050
 H        -0.126125        -0.471294         0.961562
 H        -0.462995         0.890714        -0.075790
 H         2.372453         2.012669        -0.633871
 H         3.968553        -0.073693        -2.081539
 H         4.697258        -2.468082         0.563963
 H         3.688062        -1.436836         1.663731
 H         2.675729        -3.146240        -0.553825
 H         1.929810        -2.208971         0.886949
 H         1.787112        -1.313787        -1.883243
