19
Iteration:  2515charge 0 multiplicity 1
 C         0.044698        -0.060436        -0.170625
 C         1.533356         0.111728        -0.151636
 O         2.284381         0.531129         1.047136
 C         2.624577         1.032494        -0.312724
 C         3.515457        -0.113972        -0.970604
 O         4.560764        -0.785728        -0.301819
 C         3.974752        -1.907293         0.487432
 C         2.657638        -2.275993        -0.113734
 C         2.214731        -1.045501        -0.920063
 H        -0.248941         0.105415        -1.165498
 H        -0.233695        -1.124348        -0.029591
 H        -0.542399         0.553184         0.443200
 H         2.632479         2.083148        -0.494672
 H         3.845044         0.155444        -1.988435
 H         4.777550        -2.731695         0.464201
 H         3.899375        -1.640635         1.546568
 H         2.510429        -3.264716        -0.488067
 H         2.106523        -2.188802         0.815712
 H         1.820881        -1.089468        -1.930116
