19
Iteration:  2726charge 0 multiplicity 1
 C         0.043492         0.504074        -0.379806
 C         1.373604        -0.026079        -0.123185
 O         2.107160         0.276192         1.052908
 C         2.490868         0.891465        -0.131417
 C         3.370125        -0.194526        -0.960356
 O         4.588199        -0.665945        -0.389091
 C         4.330857        -1.956458         0.302077
 C         2.826463        -2.261904         0.099310
 C         2.268569        -1.165433        -0.795889
 H         0.030220         1.122880        -1.306233
 H        -0.612116        -0.298312        -0.504714
 H        -0.203348         1.105264         0.505976
 H         2.351998         1.953917        -0.461617
 H         3.474425         0.208075        -2.005371
 H         5.097398        -2.711891        -0.072648
 H         4.546062        -1.846482         1.399901
 H         2.499563        -3.165537        -0.474571
 H         2.389747        -2.287745         1.092887
 H         1.717311        -1.674417        -1.645232
