19
Iteration:  3125
 C         0.050333        -0.025076         0.113155
 C         1.516998         0.084729        -0.285737
 O         2.355273         0.574875         0.794346
 C         2.696914         1.023829        -0.531436
 C         3.453706        -0.125438        -1.109062
 O         4.465790        -0.692182        -0.091572
 C         3.984486        -1.892216         0.628436
 C         2.626706        -2.320078        -0.028209
 C         2.254556        -1.141833        -0.967533
 H        -0.361566        -0.926025        -0.377171
 H         0.038788        -0.142360         1.245821
 H        -0.593266         0.761730        -0.362927
 H         2.697172         2.098012        -0.621161
 H         4.058107         0.123719        -2.033621
 H         4.800966        -2.558649         0.325300
 H         3.768384        -1.775732         1.730158
 H         2.668817        -3.242548        -0.653259
 H         1.911841        -2.530917         0.794798
 H         1.739926        -1.495166        -1.860515
