19
Iteration:   885
 C        -0.116436         0.326939        -0.311800
 C         1.344493        -0.000874        -0.249422
 O         1.967325         0.235489         1.103559
 C         2.645140         0.887261         0.039749
 C         3.500642        -0.051620        -0.878332
 O         4.718255        -0.883892        -0.644001
 C         4.271392        -1.778262         0.424746
 C         2.800800        -2.247543         0.075892
 C         2.258291        -1.039604        -0.909500
 H        -0.822114        -0.482475        -0.265532
 H        -0.339473         1.085933         0.439247
 H        -0.362001         0.824371        -1.239975
 H         2.929872         1.918600         0.029431
 H         3.664971         0.613084        -1.742401
 H         4.942811        -2.747946         0.366086
 H         4.376789        -1.227098         1.324322
 H         2.913840        -3.234894        -0.435598
 H         2.118812        -2.485449         1.021218
 H         2.018866        -1.389004        -1.878178
