19
Iteration:  3986
 C        -0.084240         0.248927        -0.367700
 C         1.381274        -0.033169        -0.178361
 O         2.251121         0.414106         0.979339
 C         2.545669         0.938954        -0.331593
 C         3.442409        -0.242814        -1.047038
 O         4.516012        -0.522575        -0.118865
 C         4.297777        -1.864694         0.311058
 C         2.761249        -2.256268         0.188876
 C         2.225934        -1.238596        -0.810017
 H        -0.208926         0.352488        -1.458944
 H        -0.723926        -0.581423         0.020533
 H        -0.512176         1.033232         0.257632
 H         2.835095         1.937010        -0.606366
 H         3.905545         0.138305        -2.001262
 H         4.834978        -2.551475        -0.406162
 H         4.831024        -2.076362         1.231808
 H         2.799840        -3.301226        -0.250679
 H         2.296484        -2.354942         1.158472
 H         1.689689        -1.809249        -1.612757
