19
Iteration:  4628charge 0 multiplicity 1
 C        -0.013128         0.204575        -0.272422
 C         1.424253         0.047984        -0.221654
 O         2.019028         0.546720         1.021667
 C         2.584033         0.921050        -0.341525
 C         3.432895        -0.203815        -0.906820
 O         4.636678        -0.795943        -0.421652
 C         4.233567        -1.796597         0.493113
 C         2.880619        -2.313798         0.090729
 C         2.196069        -1.147244        -0.798821
 H        -0.454153        -0.240892        -1.127703
 H        -0.416231        -0.230904         0.637355
 H        -0.159285         1.217982        -0.328908
 H         2.640625         1.978411        -0.610740
 H         3.587685         0.006099        -2.028485
 H         5.115832        -2.476000         0.311868
 H         4.188809        -1.567983         1.544340
 H         2.805320        -3.257269        -0.555679
 H         2.369514        -2.613073         1.019040
 H         1.833501        -1.700141        -1.699676
