19
Iteration:  2093
 C         0.013548         0.247579        -0.484250
 C         1.479103        -0.048633        -0.102984
 O         2.043819         0.436411         1.147776
 C         2.553286         0.985169        -0.111486
 C         3.437894        -0.046860        -0.783790
 O         4.529750        -0.594120        -0.116176
 C         4.325561        -2.057162        -0.075722
 C         2.800182        -2.361491         0.012476
 C         2.244462        -1.168408        -0.791132
 H        -0.706808        -0.527579        -0.233774
 H        -0.322292         1.077002         0.203899
 H        -0.112447         0.476834        -1.530677
 H         2.402144         2.043324        -0.401673
 H         3.629755         0.290640        -1.834066
 H         4.776423        -2.457359        -0.960474
 H         4.829770        -2.311624         0.846866
 H         2.505941        -3.323090        -0.525242
 H         2.673242        -2.393542         1.083210
 H         1.760657        -1.281041        -1.815339
