19
Iteration:  4053
 C        -0.087297         0.069184        -0.221441
 C         1.457454         0.061849        -0.230700
 O         2.094156         0.475295         0.939913
 C         2.622520         0.962173        -0.323259
 C         3.442325        -0.211091        -1.023709
 O         4.601611        -0.679536        -0.255005
 C         4.274689        -1.877265         0.431934
 C         2.754449        -2.214043         0.101918
 C         2.300240        -1.163169        -0.850894
 H        -0.457639        -0.348906        -1.200370
 H        -0.611402        -0.293326         0.652407
 H        -0.354351         1.142934        -0.186536
 H         2.701835         2.063355        -0.245048
 H         3.641621         0.059785        -2.087600
 H         4.938856        -2.728970         0.377674
 H         4.320367        -1.703730         1.475734
 H         2.538774        -3.210318        -0.323047
 H         2.108914        -2.048579         0.944271
 H         1.738059        -1.522904        -1.701893
