19
Iteration:  4863
 C        -0.042857         0.323531        -0.505505
 C         1.405740        -0.011031        -0.290825
 O         1.981949         0.526647         1.006194
 C         2.539968         0.893605        -0.205168
 C         3.406586        -0.277422        -0.945865
 O         4.561062        -0.657820        -0.304744
 C         4.417661        -2.000602         0.149071
 C         2.885827        -2.165550         0.413532
 C         2.260685        -1.255108        -0.661233
 H        -0.672597        -0.189557        -1.250361
 H        -0.475259        -0.071671         0.322714
 H        -0.260625         1.381403        -0.600009
 H         2.451705         1.941109        -0.651713
 H         3.668999         0.020257        -2.011081
 H         4.732795        -2.686028        -0.655426
 H         4.966255        -2.163697         1.136374
 H         2.583382        -3.172684         0.499368
 H         2.790891        -1.751426         1.441896
 H         1.902662        -1.625725        -1.624788
