19
Iteration:   227charge 0 multiplicity 1
 C        -0.082386         0.233014        -0.089130
 C         1.424027        -0.018932        -0.211341
 O         2.087654         0.518719         1.016313
 C         2.525057         0.958830        -0.203391
 C         3.507585        -0.066279        -0.782242
 O         4.587385        -0.756361        -0.171250
 C         4.108219        -1.967453         0.427528
 C         2.903104        -2.415214        -0.438696
 C         2.343777        -1.053143        -0.943852
 H        -0.242690         1.150297         0.491391
 H        -0.657470         0.247162        -1.072824
 H        -0.519683        -0.653737         0.521582
 H         2.599729         2.047747        -0.328035
 H         3.867800         0.344911        -1.747491
 H         4.945361        -2.734547         0.373714
 H         3.857996        -1.748323         1.443805
 H         3.281672        -3.158395        -1.294420
 H         2.148824        -2.958245         0.224509
 H         2.029564        -1.111945        -1.959681
