19
Iteration:  4923charge 0 multiplicity 1
 C        -0.055302         0.121383        -0.336255
 C         1.425032        -0.018929        -0.205310
 O         2.075343         0.784194         0.881461
 C         2.556182         1.012106        -0.419353
 C         3.456375        -0.264210        -0.904924
 O         4.494758        -0.649042        -0.029970
 C         4.367748        -2.066567         0.071799
 C         2.784084        -2.286982         0.302211
 C         2.257564        -1.226967        -0.722144
 H        -0.104202         0.310352        -1.418489
 H        -0.523926        -0.944641         0.035471
 H        -0.558178         0.804146         0.412644
 H         2.837261         1.915971        -0.855313
 H         3.841643         0.112972        -1.853929
 H         4.757085        -2.664868        -0.750703
 H         5.075504        -2.301449         0.849267
 H         2.433328        -3.369968         0.162594
 H         2.578303        -1.976129         1.348693
 H         1.897633        -1.600731        -1.703200
