19
Iteration:  2919
 C        -0.070464         0.362849        -0.279753
 C         1.389793         0.029473        -0.043087
 O         2.176091         0.574588         1.047655
 C         2.619938         0.894716        -0.392221
 C         3.392519        -0.258591        -0.910097
 O         4.566017        -0.712963        -0.362008
 C         4.251198        -1.806164         0.427528
 C         2.846366        -2.461768        -0.100086
 C         2.176079        -1.245069        -0.687318
 H        -0.790610        -0.130790         0.361876
 H        -0.113653         1.457603        -0.065806
 H        -0.391235         0.201093        -1.332794
 H         2.856365         1.920694        -0.682649
 H         3.631647        -0.225291        -1.962630
 H         5.018223        -2.617458         0.344687
 H         4.162744        -1.462982         1.456826
 H         3.178046        -2.993626        -1.033311
 H         2.401269        -3.014727         0.728397
 H         1.770724        -1.433812        -1.683167
