19
Iteration:  4500charge 0 multiplicity 1
 C         0.014480         0.024441        -0.420230
 C         1.444463         0.069758        -0.224124
 O         2.036505         0.763831         0.954967
 C         2.585252         1.008809        -0.322072
 C         3.407887        -0.206774        -0.891933
 O         4.572676        -0.670271        -0.158574
 C         4.350900        -2.118304         0.023447
 C         2.784315        -2.292032         0.349715
 C         2.213790        -1.157288        -0.614678
 H        -0.125701        -0.085565        -1.543057
 H        -0.461059        -0.896451         0.097259
 H        -0.503140         0.891912         0.055358
 H         2.590018         2.029290        -0.706164
 H         3.567290         0.150801        -1.878523
 H         4.619877        -2.712018        -0.899318
 H         5.093149        -2.267528         0.804830
 H         2.472188        -3.315514         0.083489
 H         2.454004        -1.969922         1.286982
 H         1.795432        -1.579527        -1.558881
