19
Iteration:  4428charge 0 multiplicity 1
 C        -0.023201         0.336706        -0.210960
 C         1.391154        -0.046406        -0.328844
 O         2.015667         0.354157         0.887226
 C         2.572083         0.856935        -0.369277
 C         3.467545        -0.191724        -0.954476
 O         4.576415        -0.544188        -0.242492
 C         4.326281        -1.905180         0.376729
 C         2.799135        -2.251819         0.272235
 C         2.251264        -1.221938        -0.801176
 H        -0.620420        -0.069546        -0.983605
 H        -0.375514         0.148924         0.737872
 H        -0.050902         1.418814        -0.133575
 H         2.727737         1.906848        -0.634939
 H         3.631063        -0.177896        -2.068869
 H         4.825072        -2.463930        -0.375303
 H         4.880633        -1.981662         1.359704
 H         2.756888        -3.209857        -0.261779
 H         2.264667        -2.237954         1.289597
 H         1.934740        -1.541465        -1.781987
