19
Iteration:   849
 C         0.096922         0.481276        -0.427201
 C         1.428109        -0.039271        -0.052685
 O         2.090712         0.284115         1.157323
 C         2.618225         0.831330        -0.082800
 C         3.250439        -0.137126        -0.926191
 O         4.517924        -0.626903        -0.450624
 C         4.245736        -1.742253         0.414217
 C         2.961854        -2.489132        -0.107230
 C         2.131300        -1.211719        -0.821653
 H        -0.756005        -0.200075        -0.450829
 H        -0.016081         1.435191         0.190079
 H         0.300128         0.820496        -1.471010
 H         2.705939         1.939954        -0.103447
 H         3.460481         0.297558        -1.925904
 H         5.185385        -2.335887         0.367024
 H         4.086366        -1.482874         1.500466
 H         3.239679        -3.193041        -0.980118
 H         2.512171        -2.988275         0.696963
 H         1.608909        -1.464593        -1.805397
