19
Iteration:   648charge 0 multiplicity 1
 C         0.002153         0.411583        -0.262067
 C         1.434643        -0.007874        -0.156940
 O         2.003787         0.305657         1.106511
 C         2.589547         0.852263        -0.168742
 C         3.442754        -0.161390        -0.923061
 O         4.659374        -0.682810        -0.358704
 C         4.210777        -1.827798         0.426333
 C         2.863932        -2.380982        -0.156988
 C         2.202917        -1.116709        -0.888806
 H        -0.565630         0.266517         0.698358
 H        -0.084194         1.495333        -0.464014
 H        -0.448501        -0.087334        -1.138031
 H         2.650179         1.934241        -0.098081
 H         3.570963         0.330696        -1.892755
 H         4.985793        -2.543328         0.367979
 H         4.078323        -1.500530         1.543664
 H         3.132087        -3.141006        -0.858925
 H         2.264579        -2.964211         0.582334
 H         1.709426        -1.321914        -1.865116
