19
Iteration:  1643
 C        -0.059846         0.517065        -0.201395
 C         1.381570        -0.033623        -0.317052
 O         2.048392         0.235078         0.991664
 C         2.515668         0.887556        -0.207368
 C         3.443997        -0.082367        -0.892374
 O         4.559684        -0.575019        -0.042330
 C         4.357863        -1.961522         0.125724
 C         2.828561        -2.351598         0.034755
 C         2.276460        -1.224102        -0.903438
 H        -0.745547         0.032326         0.510640
 H         0.201153         1.484462         0.173963
 H        -0.564256         0.523834        -1.260468
 H         2.415662         1.943350        -0.400440
 H         3.785847         0.397293        -1.829190
 H         4.969856        -2.547217        -0.546154
 H         4.756140        -2.271465         1.116831
 H         2.955851        -3.326130        -0.458045
 H         2.417926        -2.456089         1.064044
 H         2.003962        -1.691889        -1.943529
