19
Iteration:  3568charge 0 multiplicity 1
 C         0.030897         0.164725        -0.584200
 C         1.416219         0.040538        -0.183655
 O         2.076052         0.544556         1.070136
 C         2.585925         1.018970        -0.175050
 C         3.337726        -0.143332        -0.896387
 O         4.586872        -0.658777        -0.371176
 C         4.363280        -2.028357         0.045552
 C         2.816172        -2.292567         0.352835
 C         2.201793        -1.211937        -0.586902
 H         0.040083         0.216971        -1.696050
 H        -0.588571        -0.718912        -0.216628
 H        -0.439440         1.126784        -0.237163
 H         2.502386         2.083414        -0.210362
 H         3.392438         0.154477        -1.959756
 H         4.843452        -2.831404        -0.502344
 H         4.728726        -2.081510         1.086161
 H         2.567344        -3.368371         0.201735
 H         2.537181        -2.077476         1.448644
 H         1.650154        -1.575075        -1.484450
