19
Iteration:  1469
 C         0.039190         0.432208        -0.500972
 C         1.406638         0.054981        -0.102594
 O         1.988848         0.289099         1.142419
 C         2.581936         0.910949        -0.134798
 C         3.370479        -0.141913        -0.837531
 O         4.522821        -0.557564        -0.200303
 C         4.458388        -1.985257        -0.009005
 C         2.825546        -2.332872         0.053068
 C         2.201380        -1.230273        -0.688737
 H        -0.537443        -0.517064        -0.479660
 H        -0.322273         1.177558         0.219936
 H         0.049174         0.977183        -1.513769
 H         2.596191         1.988632        -0.149590
 H         3.581315         0.092044        -1.899957
 H         4.911266        -2.521013        -0.892573
 H         4.910574        -2.264714         0.913830
 H         2.650805        -3.222370        -0.574782
 H         2.357803        -2.664459         0.959701
 H         1.869748        -1.572503        -1.716070
