19
Iteration:  4570
 C        -0.026852         0.299261        -0.407064
 C         1.373596        -0.014604        -0.201223
 O         2.083572         0.404346         0.928730
 C         2.586186         0.871951        -0.339598
 C         3.397531        -0.198502        -1.048139
 O         4.527763        -0.582652        -0.161387
 C         4.387461        -1.969747         0.160694
 C         2.816703        -2.203663         0.448801
 C         2.244807        -1.207294        -0.764807
 H        -0.193143         0.529917        -1.480731
 H        -0.694242        -0.499404        -0.073218
 H        -0.280244         1.095834         0.359320
 H         2.605826         1.958247        -0.459672
 H         3.704462        -0.091735        -2.098023
 H         4.707197        -2.553222        -0.759958
 H         5.036918        -2.289934         1.060709
 H         2.348823        -3.196291         0.389930
 H         2.712462        -1.618219         1.454937
 H         1.777829        -1.738911        -1.576981
