19
Iteration:  3785
 C        -0.104112         0.109708        -0.195043
 C         1.418974        -0.015978        -0.167196
 O         2.299481         0.321794         0.918407
 C         2.593143         1.018076        -0.267945
 C         3.516456        -0.189678        -1.025766
 O         4.582556        -0.706125        -0.328011
 C         4.156136        -1.729368         0.544392
 C         2.627825        -2.203941         0.048938
 C         2.257709        -1.133273        -0.900223
 H        -0.456253         0.243838        -1.211569
 H        -0.382529        -0.916100         0.014643
 H        -0.620692         0.837176         0.435500
 H         2.819741         2.123467        -0.446754
 H         3.931332        -0.082489        -2.076238
 H         5.015687        -2.394580         0.398833
 H         4.058087        -1.294405         1.568484
 H         2.811935        -3.169462        -0.402492
 H         2.063447        -2.305032         1.005763
 H         1.921497        -1.490207        -1.907221
