19
Iteration:  4237
 C        -0.045104         0.079140        -0.268027
 C         1.435659         0.124261        -0.242152
 O         2.012326         0.659551         0.983342
 C         2.531275         0.996448        -0.252528
 C         3.495988        -0.157120        -0.917064
 O         4.696381        -0.820892        -0.466188
 C         4.236128        -1.891331         0.489155
 C         2.789098        -2.391173         0.078946
 C         2.256343        -1.150216        -0.722752
 H        -0.365366        -0.453377        -1.181060
 H        -0.365533        -0.456365         0.598180
 H        -0.463221         1.086220        -0.259625
 H         2.664419         1.993236        -0.674960
 H         3.490880         0.108753        -1.968279
 H         5.026131        -2.645511         0.473009
 H         4.204653        -1.592054         1.544378
 H         2.689131        -3.245246        -0.687848
 H         2.237421        -2.564594         0.978900
 H         2.015591        -1.292602        -1.811415
