19
Iteration:  3015charge 0 multiplicity 1
 C        -0.056693         0.310917        -0.292650
 C         1.443348        -0.040700        -0.217193
 O         2.164149         0.313413         1.009602
 C         2.668864         0.952255        -0.178313
 C         3.424826        -0.172131        -0.973118
 O         4.640670        -0.883841        -0.636872
 C         4.144452        -1.691241         0.532259
 C         2.778308        -2.245349         0.208804
 C         2.224866        -1.151545        -0.853069
 H        -0.718425        -0.456814        -0.598390
 H        -0.362810         0.660169         0.757479
 H        -0.233470         1.259898        -0.810945
 H         2.710042         2.049341        -0.192897
 H         3.393172         0.327483        -1.977787
 H         4.950695        -2.425400         0.730889
 H         3.951891        -1.201537         1.539657
 H         2.846378        -3.195474        -0.300842
 H         2.195235        -2.212620         1.127292
 H         1.726758        -1.569827        -1.699256
