19
Iteration:   858charge 0 multiplicity 1
 C         0.068902         0.507234        -0.423476
 C         1.400102        -0.049278        -0.047376
 O         2.010365         0.254996         1.181673
 C         2.582676         0.904646        -0.066373
 C         3.367793        -0.191316        -0.958635
 O         4.558805        -0.719856        -0.492473
 C         4.304328        -1.741253         0.410631
 C         2.957880        -2.402512        -0.150261
 C         2.154941        -1.182950        -0.780505
 H        -0.781006        -0.244207        -0.310808
 H        -0.314340         1.262279         0.305741
 H         0.129094         0.922846        -1.501542
 H         2.667433         2.022712        -0.156138
 H         3.544690         0.243692        -1.960192
 H         5.116461        -2.393608         0.474077
 H         4.130472        -1.249440         1.448704
 H         3.173504        -3.311091        -0.740750
 H         2.401834        -2.783924         0.639991
 H         1.645567        -1.508027        -1.755110
