19
Iteration:  3268
 C        -0.056810         0.318148        -0.508869
 C         1.381945         0.021636        -0.138068
 O         2.068382         0.318225         1.083664
 C         2.630369         0.828416        -0.172483
 C         3.458674        -0.184677        -0.952013
 O         4.638134        -0.799386        -0.658623
 C         4.297891        -1.803660         0.402783
 C         2.793021        -2.150525         0.318695
 C         2.217943        -1.147836        -0.704649
 H        -0.164746         0.701405        -1.568889
 H        -0.580719        -0.600032        -0.155559
 H        -0.501568         1.164029         0.080795
 H         2.615177         1.913852        -0.076938
 H         3.502692         0.247358        -2.001395
 H         4.975473        -2.640006         0.207460
 H         4.425434        -1.318533         1.390587
 H         2.327791        -3.054785        -0.074168
 H         2.419149        -1.899169         1.290760
 H         1.868412        -1.734174        -1.570346
