19
Iteration:  3045
 C        -0.025501         0.373531        -0.265850
 C         1.422024        -0.019366        -0.038632
 O         2.191025         0.543870         1.018324
 C         2.685035         0.869846        -0.376139
 C         3.350993        -0.293433        -1.011295
 O         4.577041        -0.715747        -0.389514
 C         4.157995        -1.804301         0.526745
 C         2.903111        -2.361553        -0.030128
 C         2.144804        -1.200424        -0.775157
 H        -0.592168        -0.560101        -0.558763
 H        -0.561993         0.695556         0.718670
 H        -0.087545         1.247618        -0.957839
 H         2.539645         1.946026        -0.628825
 H         3.657985        -0.019217        -2.077835
 H         4.959509        -2.548319         0.497979
 H         4.108127        -1.539344         1.623780
 H         3.146020        -3.029112        -0.839459
 H         2.287813        -3.015298         0.649117
 H         1.460471        -1.527451        -1.566904
