19
Iteration:  2057charge 0 multiplicity 1
 C        -0.187935         0.096913        -0.352606
 C         1.375073         0.130549        -0.316769
 O         1.985749         0.290151         1.001770
 C         2.707240         0.979177        -0.062962
 C         3.537083        -0.047857        -0.767208
 O         4.682566        -0.689583        -0.044764
 C         4.253981        -2.071530        -0.156395
 C         2.810123        -2.143004         0.165645
 C         2.242116        -1.055206        -0.901229
 H        -0.497666        -0.893622         0.064286
 H        -0.353140         0.871869         0.408504
 H        -0.797244         0.434334        -1.250991
 H         2.634648         2.019183        -0.005709
 H         3.969739         0.440622        -1.628467
 H         4.733781        -2.512990        -1.087151
 H         4.781867        -2.731406         0.621866
 H         2.302185        -3.111328         0.302069
 H         2.563347        -1.661452         1.143553
 H         1.981422        -1.462442        -1.900130
