19
Iteration:   608
 C         0.041838         0.102936        -0.471618
 C         1.423753         0.126451        -0.186754
 O         2.253716         0.097226         1.207628
 C         2.620475         0.951218         0.055953
 C         3.492408        -0.032228        -0.986499
 O         4.567684        -0.750374        -0.523690
 C         4.132832        -1.828624         0.438114
 C         2.633119        -2.143327         0.073679
 C         2.196900        -0.965473        -0.940278
 H        -0.510542        -0.323246         0.288345
 H        -0.363440         1.006895        -0.803656
 H        -0.012170        -0.615999        -1.291281
 H         2.810672         1.992790         0.192286
 H         3.866431         0.382584        -1.948688
 H         4.770699        -2.683158         0.188768
 H         4.333754        -1.520561         1.436428
 H         2.576173        -3.126908        -0.503234
 H         1.996753        -2.194848         0.924710
 H         1.760436        -1.333369        -1.939412
