19
Iteration:  1396charge 0 multiplicity 1
 C        -0.097994         0.150596        -0.406183
 C         1.427973         0.022698        -0.278443
 O         1.993121         0.209647         1.052945
 C         2.694932         0.885190         0.051752
 C         3.505428        -0.046757        -0.794167
 O         4.637660        -0.669873        -0.251147
 C         4.218548        -1.998864        -0.013558
 C         2.682355        -2.056469         0.199070
 C         2.360933        -0.984953        -0.919395
 H        -0.399320        -0.417479         0.475180
 H        -0.492265         1.102875        -0.382027
 H        -0.270850        -0.397015        -1.310565
 H         3.026420         1.893446         0.238344
 H         3.653409         0.485402        -1.749161
 H         4.236189        -2.537379        -0.977102
 H         4.869696        -2.442576         0.840258
 H         2.167369        -3.061940        -0.145671
 H         2.369262        -1.874451         1.251222
 H         2.105474        -1.374992        -1.856837
