19
Iteration:  3447charge 0 multiplicity 1
 C         0.051437        -0.021984        -0.168938
 C         1.488589         0.074651        -0.103609
 O         2.319805         0.507532         0.977106
 C         2.619228         1.053213        -0.341411
 C         3.485578        -0.179650        -1.149844
 O         4.502557        -0.853061        -0.434707
 C         4.023676        -1.677112         0.713039
 C         2.702566        -2.320263         0.029516
 C         2.219059        -1.092545        -0.885088
 H        -0.356155        -0.030164        -1.200808
 H        -0.285715        -1.008023         0.154632
 H        -0.285455         0.831488         0.437168
 H         2.646914         2.129578        -0.596447
 H         3.835157         0.049514        -2.154633
 H         4.827692        -2.382426         0.925741
 H         3.770647        -0.982130         1.512665
 H         3.073055        -3.230013        -0.462629
 H         1.869090        -2.842046         0.613280
 H         1.536659        -1.370296        -1.761481
