19
Iteration:   258
 C        -0.040416         0.116613        -0.128054
 C         1.448466         0.100027        -0.283289
 O         2.045544         0.229492         0.996909
 C         2.625984         1.049951        -0.073676
 C         3.596683        -0.054950        -0.940417
 O         4.640094        -0.774652        -0.245468
 C         4.061318        -1.902379         0.454073
 C         2.716381        -2.237465        -0.198519
 C         2.338755        -0.990933        -1.052750
 H        -0.466770         1.105298         0.106318
 H        -0.568294        -0.405286        -1.020905
 H        -0.167411        -0.574630         0.810944
 H         2.674711         2.068193         0.288740
 H         3.894782         0.368890        -1.896845
 H         4.799947        -2.728323         0.290776
 H         4.125543        -1.693396         1.538544
 H         2.870886        -3.195597        -0.765468
 H         1.898036        -2.384092         0.618648
 H         1.869459        -1.140881        -2.052443
