19
Iteration:   998charge 0 multiplicity 1
 C        -0.129012         0.371794         0.060464
 C         1.378921         0.040046        -0.116308
 O         2.205860         0.697541         0.901311
 C         2.426406         1.008139        -0.442215
 C         3.502383        -0.133094        -0.887496
 O         4.403504        -0.725592         0.130677
 C         4.311642        -2.158471         0.308782
 C         2.983157        -2.518676        -0.479989
 C         2.296721        -1.178581        -0.858881
 H        -0.473773        -0.175639         0.961361
 H        -0.207449         1.436108         0.286435
 H        -0.706304         0.080030        -0.834742
 H         2.284157         2.077173        -0.784319
 H         4.096726         0.103701        -1.792994
 H         5.223159        -2.636672        -0.241158
 H         4.418960        -2.406864         1.404946
 H         3.161777        -3.073736        -1.419503
 H         2.221076        -3.172447         0.080619
 H         1.848659        -1.277756        -1.895619
