19
Iteration:  3656
 C        -0.055445         0.264478        -0.320390
 C         1.471825         0.015442        -0.128308
 O         2.164978         0.515669         1.000961
 C         2.538912         0.860660        -0.465614
 C         3.430933        -0.216533        -0.920082
 O         4.518216        -0.532243        -0.023837
 C         4.304572        -2.048444         0.133781
 C         2.790024        -2.277935         0.054778
 C         2.249742        -1.160766        -0.732979
 H        -0.365778        -0.141620        -1.299744
 H        -0.600011        -0.431498         0.462842
 H        -0.419322         1.315010        -0.154663
 H         2.305223         1.938858        -0.517267
 H         3.714784        -0.088543        -1.996901
 H         4.965346        -2.583422        -0.563617
 H         4.755965        -2.177099         1.148907
 H         2.632557        -3.356940        -0.293082
 H         2.314117        -2.243274         1.093210
 H         1.864704        -1.528222        -1.682660
