19
Iteration:  2804charge 0 multiplicity 1
 C         0.000396         0.087065        -0.066377
 C         1.480337         0.011555        -0.163378
 O         2.244445         0.527602         0.985699
 C         2.598940         0.988995        -0.288248
 C         3.567524        -0.121114        -1.007996
 O         4.588119        -0.796666        -0.354139
 C         3.958859        -1.812190         0.550454
 C         2.722477        -2.385433        -0.132792
 C         2.238794        -1.066560        -0.913772
 H        -0.416170         1.125703        -0.252681
 H        -0.220602        -0.681739        -0.710430
 H        -0.330768        -0.242701         0.917720
 H         2.741018         1.989540        -0.574977
 H         3.823090         0.121247        -2.082427
 H         4.675565        -2.633775         0.737936
 H         3.760415        -1.155527         1.437952
 H         2.873160        -3.232233        -0.756561
 H         1.940362        -2.515304         0.687677
 H         1.895653        -1.226784        -1.972435
