19
Iteration:  1336
 C        -0.089803         0.381665        -0.239282
 C         1.407994        -0.002719        -0.149315
 O         2.057172         0.610851         1.068887
 C         2.537887         0.965855        -0.265744
 C         3.475034        -0.179275        -0.816409
 O         4.452126        -0.621032         0.123604
 C         4.419754        -2.009348         0.017472
 C         2.911690        -2.530185        -0.294380
 C         2.232358        -1.224366        -0.796655
 H        -0.658024        -0.429513         0.281852
 H        -0.228102         1.406082         0.295372
 H        -0.658424         0.447350        -1.192966
 H         2.607639         2.034614        -0.520361
 H         3.995090        -0.053908        -1.806828
 H         5.173080        -2.233934        -0.747835
 H         4.806941        -2.552387         0.824338
 H         2.772212        -3.133408        -1.212346
 H         2.525251        -3.094203         0.582565
 H         1.633801        -1.368585        -1.753266
