19
Iteration:   321charge 0 multiplicity 1
 C        -0.001914         0.382073        -0.391313
 C         1.447013        -0.004554        -0.145077
 O         2.014998         0.221148         1.096233
 C         2.633270         0.877550        -0.030695
 C         3.417622        -0.102148        -0.818538
 O         4.576613        -0.767144        -0.471776
 C         4.215221        -1.795142         0.380970
 C         2.869111        -2.294333        -0.136688
 C         2.254808        -1.082444        -0.795792
 H        -0.223813         1.240643         0.185741
 H        -0.186978         0.641407        -1.437674
 H        -0.683060        -0.375160        -0.137171
 H         2.707121         1.946232         0.034002
 H         3.618556         0.259615        -1.834716
 H         4.977161        -2.555759         0.313056
 H         4.072776        -1.515320         1.478927
 H         3.030855        -3.000490        -0.851705
 H         2.204975        -2.728955         0.642016
 H         1.857657        -1.288802        -1.860544
