19
Iteration:   710charge 0 multiplicity 1
 C         0.064418         0.180578        -0.142587
 C         1.499882        -0.043020        -0.100587
 O         2.267774         0.405852         1.018562
 C         2.598281         0.952306        -0.303516
 C         3.473953        -0.161949        -1.049901
 O         4.420924        -0.647279        -0.193132
 C         4.022030        -1.813024         0.508434
 C         2.823865        -2.386827        -0.229704
 C         2.257424        -1.091316        -0.895232
 H        -0.592304        -0.722466         0.015172
 H        -0.239376         1.001205         0.561568
 H        -0.145045         0.533023        -1.153619
 H         2.476987         2.065816        -0.269131
 H         3.942157         0.074241        -2.020402
 H         4.971464        -2.498943         0.530090
 H         3.796659        -1.559929         1.496430
 H         3.111025        -2.933808        -1.143349
 H         1.988947        -2.884128         0.378462
 H         1.658978        -1.183979        -1.765029
