19
Iteration:  1226charge 0 multiplicity 1
 C        -0.000364         0.092076        -0.315542
 C         1.458332         0.064362        -0.274205
 O         1.962471         0.202232         1.067610
 C         2.626633         0.934429        -0.031419
 C         3.561007         0.010281        -0.881939
 O         4.622316        -0.737115        -0.336737
 C         4.183531        -1.928262         0.195474
 C         2.668688        -2.120779         0.071220
 C         2.341522        -0.972941        -0.868059
 H        -0.373687        -0.622518         0.481586
 H        -0.489948         1.069904        -0.032217
 H        -0.315236        -0.249476        -1.313570
 H         2.738066         1.981300         0.122677
 H         3.827543         0.381330        -1.900400
 H         4.649461        -2.760616        -0.462830
 H         4.583786        -2.065993         1.202319
 H         2.525282        -3.102876        -0.473421
 H         2.150236        -2.034353         1.104321
 H         2.137821        -1.319397        -1.891704
