19
Iteration:   865
 C        -0.003386         0.505912        -0.404455
 C         1.372434        -0.018397        -0.060591
 O         1.972009         0.249396         1.190480
 C         2.548874         0.887894        -0.049596
 C         3.456986        -0.182276        -0.967636
 O         4.628473        -0.780449        -0.561285
 C         4.287083        -1.768346         0.426331
 C         2.936696        -2.301587        -0.111795
 C         2.252869        -1.190490        -0.780524
 H        -0.683596        -0.360702        -0.402821
 H        -0.307599         1.260060         0.285495
 H        -0.215161         0.956609        -1.364375
 H         2.483838         1.962444        -0.046669
 H         3.527119         0.169794        -1.998107
 H         5.099120        -2.536854         0.492073
 H         4.108675        -1.244689         1.345275
 H         3.049462        -3.112290        -0.810032
 H         2.242371        -2.668724         0.752260
 H         1.734511        -1.463965        -1.663707
