19
Iteration:  2133charge 0 multiplicity 1
 C        -0.112106         0.460237        -0.402224
 C         1.387577        -0.044676        -0.127490
 O         2.027816         0.337775         1.137599
 C         2.583323         0.941683        -0.178132
 C         3.462841        -0.099346        -0.835368
 O         4.547384        -0.568647        -0.185323
 C         4.387594        -1.998785         0.128699
 C         2.944027        -2.447587        -0.192016
 C         2.191526        -1.153927        -0.702330
 H        -0.810225        -0.085148         0.267564
 H        -0.153592         1.546241        -0.159567
 H        -0.541905         0.112100        -1.387338
 H         2.517443         1.960982        -0.378353
 H         3.745836         0.174047        -1.859001
 H         5.246741        -2.590359        -0.341350
 H         4.491339        -2.034062         1.262588
 H         2.907168        -3.379540        -0.743561
 H         2.403763        -2.769762         0.719869
 H         1.714201        -1.459448        -1.622977
