19
Iteration:  1073charge 0 multiplicity 1
 C        -0.028068         0.032059        -0.081719
 C         1.467806         0.037970        -0.241252
 O         2.153229         0.311262         1.013628
 C         2.629404         0.971496        -0.249580
 C         3.565253        -0.061867        -0.940145
 O         4.619368        -0.765349        -0.223582
 C         4.137630        -1.893565         0.397450
 C         2.603858        -2.177070        -0.125779
 C         2.289943        -0.946087        -0.987491
 H        -0.152570        -0.863136         0.517976
 H        -0.416777         0.908919         0.323238
 H        -0.489040        -0.232782        -1.026571
 H         2.615182         2.080947        -0.274345
 H         3.943449         0.313983        -1.904828
 H         4.831157        -2.680215         0.095378
 H         4.031379        -1.698224         1.420255
 H         2.359114        -3.136256        -0.625192
 H         1.896752        -2.209425         0.824002
 H         1.901225        -1.104017        -1.974300
