19
Iteration:  2399charge 0 multiplicity 1
 C        -0.042310         0.311207        -0.609110
 C         1.389071         0.083600        -0.131425
 O         1.936190         0.391826         1.173675
 C         2.624477         0.897538        -0.094748
 C         3.460525        -0.068264        -0.846637
 O         4.658582        -0.746495        -0.382571
 C         4.326725        -2.070004        -0.030129
 C         2.766275        -2.198376         0.280016
 C         2.268150        -1.117501        -0.642541
 H        -0.210751         0.590386        -1.720569
 H        -0.512548        -0.722588        -0.654545
 H        -0.647073         0.942372         0.136139
 H         2.636175         1.945814        -0.100336
 H         3.635387         0.334859        -1.845998
 H         4.643775        -2.724731        -0.865643
 H         4.946277        -2.363804         0.814556
 H         2.541611        -3.329866         0.134933
 H         2.757731        -1.891617         1.289836
 H         2.037585        -1.492771        -1.663928
