19
Iteration:  1783
 C        -0.003233         0.389479        -0.437533
 C         1.451222        -0.068401        -0.108692
 O         2.035797         0.319264         1.080814
 C         2.590056         0.891152        -0.136698
 C         3.418871        -0.159583        -0.861536
 O         4.475226        -0.521588        -0.041578
 C         4.340108        -2.046748        -0.077378
 C         2.854604        -2.249241         0.034280
 C         2.230873        -1.135474        -0.849339
 H        -0.618554        -0.087714         0.341574
 H        -0.079728         1.455111        -0.295833
 H        -0.283941        -0.119162        -1.347255
 H         2.663120         1.978066         0.002032
 H         3.777664         0.149011        -1.880751
 H         4.863939        -2.414310        -0.980471
 H         4.985696        -2.496133         0.820536
 H         2.619191        -3.322881        -0.192252
 H         2.480050        -2.185745         1.128913
 H         1.682580        -1.500431        -1.693285
