19
Iteration:   637
 C        -0.003590         0.343468        -0.367072
 C         1.379939        -0.063324        -0.084825
 O         2.153502         0.262179         1.080732
 C         2.639155         0.872818        -0.053331
 C         3.462174        -0.082857        -0.898792
 O         4.581759        -0.680043        -0.410509
 C         4.206189        -1.778222         0.411643
 C         2.735285        -2.328090        -0.150887
 C         2.229354        -1.134368        -0.838176
 H        -0.776181         0.102673         0.423106
 H        -0.037081         1.392104        -0.708372
 H        -0.368190        -0.306453        -1.177801
 H         2.778876         1.959867        -0.136291
 H         3.798116         0.211819        -1.897180
 H         4.971216        -2.502395         0.335151
 H         4.111887        -1.426629         1.533559
 H         2.857240        -3.068320        -0.898581
 H         2.092792        -2.601071         0.728277
 H         1.890236        -1.365862        -1.868433
