19
Iteration:  1529charge 0 multiplicity 1
 C        -0.016791         0.207222        -0.187023
 C         1.421967         0.017195        -0.287299
 O         2.011354         0.398651         0.909758
 C         2.585659         0.951275        -0.197830
 C         3.586589        -0.051243        -0.857535
 O         4.520503        -0.646174        -0.007764
 C         4.279537        -2.089886         0.043149
 C         2.720305        -2.223406         0.031546
 C         2.317077        -1.104132        -0.879495
 H        -0.380558        -0.585840         0.451802
 H        -0.270773         1.059639         0.443777
 H        -0.660243         0.110129        -0.981463
 H         2.573907         2.062954        -0.164717
 H         3.941560         0.293735        -1.848724
 H         4.798742        -2.593105        -0.754474
 H         4.643175        -2.523666         1.022340
 H         2.604852        -3.164934        -0.520827
 H         2.351787        -2.194226         1.084286
 H         2.015763        -1.314296        -1.870603
