19
Iteration:  4072
 C         0.003916         0.047494        -0.386202
 C         1.502697         0.047155        -0.176202
 O         2.227365         0.515444         1.027180
 C         2.569183         0.968100        -0.271210
 C         3.428461        -0.155894        -0.962909
 O         4.512483        -0.691100        -0.401886
 C         4.140760        -1.820365         0.486888
 C         2.762431        -2.279976         0.137569
 C         2.215349        -1.150974        -0.774418
 H        -0.157947        -0.604920        -1.254667
 H        -0.348937        -0.567362         0.504348
 H        -0.538984         1.003489        -0.430528
 H         2.722509         1.947782        -0.719969
 H         3.884517         0.127743        -1.928419
 H         4.866658        -2.641209         0.249799
 H         4.391878        -1.628041         1.576818
 H         2.957856        -3.172706        -0.556406
 H         2.060617        -2.497145         0.987272
 H         1.714263        -1.344522        -1.798176
