19
Iteration:  4398charge 0 multiplicity 1
 C        -0.082803         0.196550        -0.278242
 C         1.382680         0.032832        -0.144286
 O         2.181942         0.475581         0.971679
 C         2.556002         0.940197        -0.371849
 C         3.446321        -0.186723        -0.965255
 O         4.588418        -0.657844        -0.337810
 C         4.232045        -1.906274         0.467877
 C         2.841440        -2.309839         0.149754
 C         2.242783        -1.162109        -0.820630
 H        -0.256113        -0.026556        -1.356902
 H        -0.697426        -0.663579         0.285647
 H        -0.443421         1.242821        -0.160602
 H         2.673034         1.972384        -0.759653
 H         3.533726        -0.204117        -2.058966
 H         5.081888        -2.540521         0.101121
 H         4.463602        -1.678640         1.547260
 H         2.560835        -3.296573        -0.175974
 H         2.302395        -2.053688         1.115003
 H         1.901177        -1.416956        -1.850565
