19
Iteration:  2576
 C        -0.021529         0.326437         0.112059
 C         1.435440        -0.102575        -0.178858
 O         2.224103         0.345044         0.938079
 C         2.590326         0.976449        -0.350798
 C         3.596242        -0.117474        -1.049683
 O         4.503159        -0.628793        -0.179921
 C         3.887767        -1.813092         0.609708
 C         2.861776        -2.484429        -0.352079
 C         2.330280        -1.119798        -0.983883
 H        -0.878081        -0.240468        -0.424869
 H        -0.076004         0.334832         1.190196
 H        -0.046438         1.418943        -0.255554
 H         2.448693         2.088242        -0.297501
 H         4.018458         0.025283        -2.044681
 H         4.657925        -2.519941         0.574945
 H         3.598151        -1.441311         1.606138
 H         3.349820        -3.207809        -1.039487
 H         2.042232        -3.064721         0.176557
 H         1.952231        -1.173041        -2.020802
