19
Iteration:  1025
 C         0.013897         0.172651        -0.024570
 C         1.489844         0.009589        -0.081248
 O         2.256686         0.685191         0.974200
 C         2.582252         0.932412        -0.429618
 C         3.489591        -0.175770        -0.905494
 O         4.307229        -0.588128         0.122171
 C         4.188784        -2.049780         0.276924
 C         2.856747        -2.460112        -0.491624
 C         2.225918        -1.143799        -0.834588
 H        -0.301366        -0.346799         0.910911
 H        -0.138143         1.291591         0.067965
 H        -0.558785        -0.285073        -0.855878
 H         2.652815         1.969656        -0.689965
 H         3.988067        -0.020688        -1.880583
 H         5.022547        -2.467446        -0.216885
 H         4.102867        -2.233483         1.362043
 H         2.917826        -3.089602        -1.383122
 H         2.197838        -2.986770         0.165889
 H         1.789406        -1.124123        -1.848678
