19
Iteration:  4028charge 0 multiplicity 1
 C        -0.108522         0.268908        -0.144014
 C         1.385968        -0.016210        -0.390605
 O         2.107434         0.377745         0.849773
 C         2.506379         0.858718        -0.390623
 C         3.528272        -0.057968        -0.937244
 O         4.653596        -0.659303        -0.199403
 C         4.290428        -1.885237         0.417869
 C         2.762334        -2.229789         0.229512
 C         2.283008        -1.203733        -0.884781
 H        -0.738953         0.110928        -1.008267
 H        -0.531913        -0.326748         0.726633
 H        -0.200649         1.299254         0.263245
 H         2.327526         1.917274        -0.401665
 H         3.732527         0.306400        -1.963732
 H         4.823492        -2.729150         0.039689
 H         4.652444        -1.956656         1.475245
 H         2.765960        -3.201954        -0.363598
 H         2.088242        -2.275716         1.121770
 H         1.998791        -1.782644        -1.829323
