19
Iteration:   810charge 0 multiplicity 1
 C        -0.021137         0.345718        -0.251779
 C         1.355751        -0.017138        -0.026449
 O         2.166792         0.270590         1.034010
 C         2.545444         0.878805        -0.203929
 C         3.470976        -0.116934        -0.958510
 O         4.583482        -0.680492        -0.312727
 C         4.198603        -1.850418         0.462385
 C         2.871457        -2.302767        -0.158864
 C         2.226210        -1.109617        -0.935591
 H        -0.833246        -0.086655         0.372507
 H        -0.306441         1.383328        -0.163181
 H        -0.162301         0.102096        -1.318090
 H         2.665538         1.937474        -0.189292
 H         3.656010         0.330098        -1.931288
 H         5.064443        -2.573374         0.459042
 H         4.018967        -1.555255         1.480840
 H         2.967869        -3.115317        -0.854431
 H         2.252844        -2.880403         0.638000
 H         1.771216        -1.251448        -1.883263
