19
Iteration:  1290charge 0 multiplicity 1
 C         0.008706         0.104243        -0.098213
 C         1.440839        -0.021865        -0.183804
 O         2.173241         0.612370         0.970875
 C         2.587049         0.989558        -0.324319
 C         3.559630        -0.108563        -0.852490
 O         4.402567        -0.562638         0.253416
 C         4.254144        -2.006890         0.048356
 C         2.720176        -2.488025        -0.311973
 C         2.237708        -1.116565        -0.899693
 H        -0.512999        -0.907633         0.010455
 H        -0.109449         0.924707         0.670821
 H        -0.374521         0.492215        -1.050523
 H         2.548424         2.039518        -0.512174
 H         4.054406         0.036454        -1.830815
 H         4.868447        -2.405350        -0.732377
 H         4.749554        -2.519460         0.885344
 H         2.766662        -3.293463        -0.970805
 H         2.123132        -2.606724         0.619007
 H         1.832745        -1.096540        -1.915812
