19
Iteration:  1471charge 0 multiplicity 1
 C         0.035174         0.432110        -0.500761
 C         1.409331         0.072007        -0.101154
 O         1.997287         0.279557         1.137422
 C         2.587694         0.912350        -0.144232
 C         3.364375        -0.154404        -0.846628
 O         4.500764        -0.563207        -0.187671
 C         4.466079        -1.973165         0.001313
 C         2.837367        -2.322870         0.050019
 C         2.195638        -1.231443        -0.698037
 H        -0.600105        -0.471772        -0.490074
 H        -0.258738         1.139687         0.221503
 H         0.043594         0.967223        -1.461823
 H         2.605251         1.979679        -0.115108
 H         3.563258         0.099228        -1.907060
 H         4.903428        -2.489101        -0.844306
 H         4.947761        -2.326242         0.867947
 H         2.652569        -3.260178        -0.547537
 H         2.391069        -2.694840         0.932004
 H         1.891045        -1.548248        -1.684329
