19
Iteration:  4258charge 0 multiplicity 1
 C        -0.066460         0.158533        -0.284270
 C         1.415317        -0.007428        -0.128398
 O         2.127050         0.525748         0.931338
 C         2.627698         0.969356        -0.293840
 C         3.466764        -0.175124        -0.957489
 O         4.568966        -0.720130        -0.362384
 C         4.182651        -1.811284         0.466441
 C         2.818669        -2.342515         0.094972
 C         2.257506        -1.161597        -0.820017
 H        -0.558447        -0.300284        -1.132453
 H        -0.512954        -0.296717         0.579685
 H        -0.213690         1.220866        -0.326833
 H         2.715392         2.048834        -0.487758
 H         3.730128         0.041072        -1.983892
 H         4.995645        -2.517068         0.420913
 H         4.204558        -1.543585         1.516242
 H         2.878350        -3.168375        -0.626891
 H         2.211503        -2.524185         0.951029
 H         1.852200        -1.735152        -1.670254
