19
Iteration:  3689
 C        -0.021415         0.285595        -0.273510
 C         1.472501        -0.017616        -0.128676
 O         2.197679         0.578212         0.991338
 C         2.608858         1.007058        -0.406186
 C         3.339619        -0.174350        -0.965960
 O         4.439737        -0.589799        -0.137997
 C         4.233203        -1.976889         0.369259
 C         2.937736        -2.495822        -0.064913
 C         2.249020        -1.219743        -0.765674
 H        -0.367342        -0.174439        -1.218349
 H        -0.548940        -0.242149         0.645062
 H        -0.431043         1.316019        -0.350144
 H         2.431208         2.120390        -0.486921
 H         3.541607         0.088537        -2.054420
 H         5.109771        -2.568349         0.065910
 H         4.302470        -1.813801         1.476594
 H         2.800081        -3.253868        -0.903096
 H         2.401359        -2.911780         0.835244
 H         1.595012        -1.594844        -1.553836
