19
Iteration:   464charge 0 multiplicity 1
 C        -0.035455         0.078353        -0.011846
 C         1.408736        -0.018498        -0.296386
 O         2.041525         0.447833         0.991286
 C         2.688080         0.974654        -0.155354
 C         3.574737        -0.097877        -0.911974
 O         4.648040        -0.823790        -0.279293
 C         4.022751        -1.826941         0.485199
 C         2.748170        -2.277057        -0.246778
 C         2.345642        -1.015372        -1.036392
 H        -0.276062        -0.751450         0.591056
 H        -0.227586         0.865097         0.670017
 H        -0.787156         0.089609        -0.746737
 H         2.785311         2.108347        -0.229398
 H         4.050265         0.501383        -1.713090
 H         4.750556        -2.557026         0.694985
 H         3.743641        -1.447518         1.489395
 H         3.030510        -3.023927        -0.937087
 H         1.808335        -2.650099         0.232833
 H         1.925319        -1.258938        -2.092604
