19
Iteration:  1958charge 0 multiplicity 1
 C        -0.046135         0.420680        -0.186995
 C         1.411863        -0.074367        -0.158861
 O         2.065626         0.320856         1.075397
 C         2.548984         0.879191        -0.160030
 C         3.387073        -0.083012        -0.868570
 O         4.578457        -0.619960        -0.228041
 C         4.233681        -1.899163         0.376454
 C         2.915154        -2.438007        -0.283437
 C         2.288062        -1.164383        -0.919929
 H        -0.642905        -0.196010         0.518937
 H         0.023471         1.442147         0.106360
 H        -0.419242         0.527876        -1.238371
 H         2.554526         1.921145        -0.505821
 H         3.584976         0.317847        -1.883212
 H         5.095392        -2.477515         0.243104
 H         4.126492        -1.687917         1.477596
 H         3.214210        -3.094577        -1.116055
 H         2.227880        -2.889602         0.470076
 H         1.926837        -1.106745        -1.930182
