19
Iteration:   917charge 0 multiplicity 1
 C         0.041167         0.100942        -0.281340
 C         1.463654         0.107027        -0.235261
 O         2.081878         0.136224         1.100935
 C         2.698951         0.907515        -0.058406
 C         3.503097        -0.053037        -1.008298
 O         4.633725        -0.697543        -0.439420
 C         4.116431        -1.870205         0.349095
 C         2.631183        -2.102815         0.137595
 C         2.240406        -1.004192        -0.951025
 H        -0.293276        -0.859562         0.108683
 H        -0.394298         0.956454         0.277713
 H        -0.317010         0.198468        -1.287937
 H         3.001993         1.926592        -0.001098
 H         3.705916         0.418430        -1.995765
 H         4.619649        -2.914342         0.027988
 H         4.440427        -1.672759         1.359430
 H         2.528528        -3.072432        -0.405863
 H         1.932930        -1.972891         1.048534
 H         1.853378        -1.383366        -1.871181
