19
Iteration:  2194charge 0 multiplicity 1
 C        -0.054570         0.034686        -0.194641
 C         1.491637         0.087862        -0.218403
 O         2.236794         0.120343         1.020652
 C         2.689685         0.960538        -0.131933
 C         3.496465        -0.044378        -0.922450
 O         4.601157        -0.684407        -0.366224
 C         3.993939        -1.782679         0.531313
 C         2.666952        -2.158759        -0.091601
 C         2.270803        -1.031800        -1.007894
 H        -0.302615        -0.797478         0.487398
 H        -0.498398         0.931877         0.131361
 H        -0.513923        -0.075140        -1.191634
 H         2.925321         2.030039         0.115343
 H         3.696865         0.358899        -1.941387
 H         4.848324        -2.569638         0.418660
 H         4.071185        -1.446557         1.570928
 H         2.860577        -2.971022        -0.797138
 H         1.722804        -2.358921         0.498639
 H         1.994004        -1.198372        -2.062523
