19
Iteration:  4496charge 0 multiplicity 1
 C         0.015963         0.031168        -0.414506
 C         1.473943         0.050227        -0.241620
 O         2.049305         0.737363         0.968875
 C         2.595004         1.019280        -0.364439
 C         3.429182        -0.183656        -0.857448
 O         4.559799        -0.642024        -0.176354
 C         4.387882        -2.102227         0.035293
 C         2.737378        -2.313415         0.351584
 C         2.157350        -1.184305        -0.618057
 H        -0.154442        -0.146985        -1.455240
 H        -0.436272        -0.816937         0.074117
 H        -0.438166         0.912123        -0.045479
 H         2.588872         2.082151        -0.617030
 H         3.580237         0.216132        -1.924085
 H         4.652072        -2.629956        -0.874502
 H         5.049841        -2.438291         0.858323
 H         2.516497        -3.348598         0.072457
 H         2.490352        -1.892764         1.370794
 H         1.706516        -1.582129        -1.544875
