19
Iteration:  3129charge 0 multiplicity 1
 C         0.038666        -0.042078         0.108153
 C         1.535066         0.061208        -0.278582
 O         2.373973         0.577140         0.793405
 C         2.673785         1.031495        -0.510019
 C         3.456007        -0.136827        -1.120730
 O         4.457637        -0.694124        -0.111231
 C         3.976955        -1.888621         0.633150
 C         2.622242        -2.317458        -0.002180
 C         2.254325        -1.116639        -0.993331
 H        -0.313741        -0.931757        -0.439322
 H        -0.054936        -0.126348         1.140200
 H        -0.612077         0.750200        -0.240877
 H         2.805739         2.136077        -0.519596
 H         4.090730         0.029810        -1.962673
 H         4.820545        -2.619359         0.452714
 H         3.855763        -1.707795         1.709202
 H         2.696865        -3.181152        -0.712914
 H         1.844946        -2.351465         0.777954
 H         1.745511        -1.538311        -1.891039
