19
Iteration:   365
 C        -0.119789         0.563472        -0.245025
 C         1.282281         0.021896        -0.116477
 O         1.882964         0.351217         1.048148
 C         2.601660         0.813898        -0.147130
 C         3.449936        -0.160024        -0.879213
 O         4.652246        -0.720344        -0.348493
 C         4.360235        -1.904412         0.363786
 C         2.960747        -2.374380        -0.165731
 C         2.348670        -1.221796        -0.871090
 H        -0.415594         0.891416         0.678900
 H        -0.197996         1.435689        -0.876025
 H        -0.868041        -0.050365        -0.578159
 H         2.759051         1.888423        -0.066595
 H         3.510524         0.285658        -1.889881
 H         5.076086        -2.695396         0.157952
 H         4.299388        -1.605301         1.467409
 H         3.044033        -3.169683        -0.777695
 H         2.415703        -2.858549         0.699564
 H         2.068156        -1.418135        -2.002608
