19
Iteration:  2467
 C        -0.071667         0.504862        -0.288054
 C         1.348113         0.020557        -0.205092
 O         2.083739         0.307282         0.945787
 C         2.577305         0.885951        -0.252232
 C         3.420810        -0.162447        -0.921591
 O         4.612164        -0.700127        -0.248163
 C         4.407947        -1.934552         0.312482
 C         2.825117        -2.294985         0.165115
 C         2.185731        -1.220269        -0.898367
 H        -0.438026         1.356681        -1.031391
 H        -0.741325        -0.337720        -0.554724
 H        -0.432702         0.845636         0.772423
 H         2.678177         1.998545        -0.330822
 H         3.773782         0.197319        -1.884461
 H         5.087677        -2.711154        -0.152005
 H         4.802721        -1.881677         1.372943
 H         2.643780        -3.332466        -0.187718
 H         2.132102        -2.154089         1.071285
 H         1.903034        -1.621311        -1.910359
