19
Iteration:  1422charge 0 multiplicity 1
 C        -0.050413         0.168564        -0.440363
 C         1.415322         0.149176        -0.259926
 O         1.830239         0.305677         1.110048
 C         2.577748         0.953514         0.100103
 C         3.530912        -0.056104        -0.800975
 O         4.701915        -0.758937        -0.384261
 C         4.311796        -2.129826        -0.000020
 C         2.816174        -2.159625         0.130806
 C         2.306626        -0.965568        -0.815608
 H        -0.341063        -0.696684         0.202053
 H        -0.551668         1.159603        -0.152442
 H        -0.276072        -0.042394        -1.499054
 H         2.619947         2.061200         0.158496
 H         3.676722         0.520736        -1.724978
 H         4.684086        -2.862892        -0.790497
 H         4.754072        -2.390829         1.024366
 H         2.301308        -3.074850         0.072775
 H         2.635219        -1.966802         1.233095
 H         1.946219        -1.307020        -1.826630
