19
Iteration:  4587
 C        -0.069002         0.319890        -0.414853
 C         1.392757        -0.002336        -0.194114
 O         2.228439         0.370703         0.985629
 C         2.489834         0.893049        -0.363069
 C         3.392479        -0.242404        -0.922141
 O         4.565151        -0.570837        -0.217005
 C         4.330949        -1.951343         0.239041
 C         2.839309        -2.115072         0.256359
 C         2.190491        -1.304046        -0.704709
 H        -0.209645         0.340072        -1.512363
 H        -0.844105        -0.387759        -0.021886
 H        -0.355941         1.345292        -0.094788
 H         2.536733         1.981202        -0.590711
 H         3.662249        -0.129430        -2.001844
 H         4.738662        -2.788655        -0.336090
 H         4.784534        -1.882691         1.200709
 H         2.732829        -3.190805         0.048711
 H         2.490869        -1.856792         1.199045
 H         1.830248        -1.730003        -1.664986
