19
Iteration:   506
 C         0.080142         0.276805        -0.242152
 C         1.462686        -0.072128        -0.087720
 O         2.416672         0.341788         1.057796
 C         2.550977         0.892262        -0.247315
 C         3.354503        -0.096812        -1.007007
 O         4.325575        -0.594926        -0.142954
 C         4.049105        -1.841880         0.523109
 C         2.883624        -2.334691        -0.337676
 C         2.228357        -1.163435        -0.875256
 H        -0.492251        -0.634208        -0.369028
 H        -0.303279         0.981488         0.500875
 H         0.152519         0.822737        -1.124104
 H         2.652677         2.028330        -0.268647
 H         3.768529         0.136534        -2.011079
 H         4.855245        -2.434509         0.441940
 H         3.766502        -1.658091         1.629332
 H         3.293163        -2.790013        -1.216760
 H         2.404587        -3.252202         0.136766
 H         1.576399        -1.401632        -1.782420
