19
Iteration:  1503charge 0 multiplicity 1
 C        -0.065931         0.472010        -0.292125
 C         1.375404        -0.010470        -0.166928
 O         2.153267         0.277867         1.024774
 C         2.500278         0.879633        -0.251427
 C         3.493448        -0.099839        -0.866915
 O         4.472654        -0.556979         0.029690
 C         4.391601        -1.996767         0.023213
 C         2.766137        -2.307989         0.010246
 C         2.302308        -1.264141        -0.893461
 H        -0.892278        -0.286630        -0.085636
 H        -0.300198         1.212882         0.450126
 H        -0.342133         0.762187        -1.370858
 H         2.340009         1.938443        -0.306959
 H         3.854808         0.313161        -1.830883
 H         5.003638        -2.440681        -0.857501
 H         4.880539        -2.394938         0.868396
 H         2.533485        -3.345256        -0.317624
 H         2.550470        -2.119853         1.048709
 H         2.058918        -1.575355        -1.930302
