19
Iteration:  2001charge 0 multiplicity 1
 C        -0.061959         0.235141        -0.420385
 C         1.394026        -0.006474        -0.060407
 O         2.160536         0.397684         1.138645
 C         2.543540         0.897109        -0.106724
 C         3.416704        -0.115503        -0.804609
 O         4.555081        -0.592886        -0.177715
 C         4.350741        -2.046107         0.099380
 C         2.767002        -2.313111        -0.118622
 C         2.277482        -1.054428        -0.854750
 H        -0.750732        -0.482689         0.127024
 H        -0.415434         1.239465        -0.269920
 H        -0.094938         0.071581        -1.544897
 H         2.496821         2.006449        -0.069740
 H         3.707002         0.233089        -1.794449
 H         4.965455        -2.611435        -0.622153
 H         4.516001        -2.123148         1.190629
 H         2.548649        -2.986373        -0.900459
 H         2.176659        -2.355144         0.830124
 H         2.016149        -1.356411        -1.834989
