19
Iteration:  2771
 C        -0.038028         0.399198        -0.213266
 C         1.355259         0.028260        -0.155061
 O         2.147585         0.511337         1.030041
 C         2.597315         0.908458        -0.286964
 C         3.449911        -0.201904        -0.979271
 O         4.589342        -0.714787        -0.302353
 C         4.230841        -1.940798         0.418340
 C         2.892032        -2.404057        -0.103076
 C         2.148487        -1.167490        -0.729003
 H        -0.366532         1.200611        -0.946638
 H        -0.505693        -0.367962        -0.717951
 H        -0.560158         0.438552         0.748261
 H         2.648763         1.963450        -0.499308
 H         3.648248         0.035002        -2.071722
 H         5.050375        -2.710794         0.312961
 H         4.397903        -1.572832         1.477876
 H         3.103274        -3.138212        -0.899131
 H         2.224199        -2.993974         0.593751
 H         1.803295        -1.385906        -1.780108
