19
Iteration:  4178charge 0 multiplicity 1
 C         0.032807         0.235054        -0.297836
 C         1.440204        -0.064681        -0.191673
 O         2.224263         0.300517         0.957632
 C         2.638672         0.926876        -0.308406
 C         3.401252        -0.106766        -1.077463
 O         4.532203        -0.670084        -0.360632
 C         4.160276        -1.671055         0.584374
 C         2.789594        -2.260162         0.147875
 C         2.177999        -1.256187        -0.852670
 H        -0.304658         0.366337        -1.300933
 H        -0.594837        -0.559534         0.171620
 H        -0.177685         1.149229         0.253998
 H         2.679105         2.002175        -0.470751
 H         3.658832         0.044614        -2.124008
 H         4.922696        -2.390743         0.365341
 H         4.067989        -1.345513         1.617051
 H         2.784098        -3.248582        -0.204971
 H         2.215181        -2.307051         1.104563
 H         1.823370        -1.767871        -1.745070
