19
Iteration:  4621charge 0 multiplicity 1
 C        -0.000779         0.240422        -0.308006
 C         1.430913         0.058714        -0.213019
 O         2.017913         0.517859         1.023524
 C         2.580965         0.986963        -0.310059
 C         3.420278        -0.217123        -0.965356
 O         4.597319        -0.700708        -0.410009
 C         4.267483        -1.873671         0.464113
 C         2.862316        -2.309744         0.116019
 C         2.246481        -1.252809        -0.771743
 H        -0.290410        -0.285506        -1.249127
 H        -0.434684        -0.199852         0.610648
 H        -0.166881         1.386687        -0.242917
 H         2.495371         2.072282        -0.559836
 H         3.570916        -0.149329        -2.057107
 H         4.943576        -2.708368         0.302282
 H         4.376529        -1.599702         1.536850
 H         2.776757        -3.247686        -0.414679
 H         2.300447        -2.498630         1.011715
 H         1.756067        -1.761044        -1.625452
