19
Iteration:   543charge 0 multiplicity 1
 C        -0.051826         0.372967        -0.193071
 C         1.403332        -0.042264        -0.130147
 O         2.105378         0.353030         1.026769
 C         2.547014         0.885405        -0.230284
 C         3.454412        -0.064381        -0.893052
 O         4.585026        -0.654710        -0.269978
 C         4.188389        -1.918298         0.406982
 C         2.897334        -2.410359        -0.224536
 C         2.253956        -1.142940        -0.830657
 H        -0.839611        -0.343508        -0.089263
 H        -0.240602         1.209573         0.447855
 H        -0.198353         0.711280        -1.244350
 H         2.606638         1.941558        -0.113982
 H         3.699659         0.347731        -1.888448
 H         5.080866        -2.596073         0.247979
 H         4.009392        -1.744256         1.426323
 H         3.134622        -3.086591        -1.075572
 H         2.238949        -2.784242         0.511173
 H         2.013807        -1.324961        -1.912005
