19
Iteration:  3346charge 0 multiplicity 1
 C        -0.048485         0.230280        -0.187459
 C         1.498580         0.002732        -0.170546
 O         2.305449         0.450131         0.950653
 C         2.566074         0.889728        -0.407189
 C         3.372437        -0.173997        -1.005708
 O         4.469105        -0.641872        -0.175550
 C         4.171736        -1.898145         0.440955
 C         2.824126        -2.310401         0.004434
 C         2.237878        -1.140481        -0.847810
 H        -0.472966        -0.337844        -1.075251
 H        -0.482111        -0.028457         0.749057
 H        -0.086711         1.311044        -0.258998
 H         2.539300         1.951360        -0.597334
 H         3.678114         0.119008        -2.030319
 H         4.981997        -2.599067         0.173701
 H         4.136746        -1.923512         1.499394
 H         2.797302        -3.197480        -0.606044
 H         2.214833        -2.445882         0.875209
 H         1.700427        -1.305506        -1.774262
