19
Iteration:   105charge 0 multiplicity 1
 C         0.027735         0.182235        -0.355290
 C         1.451575         0.045149        -0.171784
 O         2.019961         0.059449         1.091065
 C         2.662554         0.927025         0.022447
 C         3.463053        -0.050906        -0.924016
 O         4.624852        -0.764672        -0.442640
 C         4.172412        -1.765975         0.407357
 C         2.714391        -2.100439        -0.028890
 C         2.279997        -1.002859        -0.962219
 H        -0.357154         1.190682        -0.102179
 H        -0.224483         0.022175        -1.452840
 H        -0.474256        -0.597016         0.309052
 H         2.908240         1.942580         0.285248
 H         3.759993         0.405822        -1.883907
 H         4.807068        -2.651662         0.183379
 H         4.271596        -1.495952         1.471681
 H         2.752128        -3.095307        -0.663084
 H         1.960855        -2.358143         0.854576
 H         1.882438        -1.229762        -1.953614
