19
Iteration:  1595
 C         0.029082         0.120898        -0.300945
 C         1.479487        -0.002910        -0.176039
 O         2.155132         0.472965         1.047465
 C         2.557025         1.010175        -0.183179
 C         3.497395        -0.061679        -0.864056
 O         4.525508        -0.636955        -0.106281
 C         4.187575        -2.075619         0.160357
 C         2.697936        -2.294553        -0.064920
 C         2.276756        -1.070701        -0.918505
 H        -0.379068        -0.204172         0.667420
 H        -0.395183         1.139614        -0.493469
 H        -0.241038        -0.617343        -0.984351
 H         2.435017         2.116690        -0.094187
 H         3.907465         0.340275        -1.816327
 H         4.723457        -2.733893        -0.552165
 H         4.695185        -2.316627         1.168496
 H         2.503168        -3.294416        -0.556726
 H         2.109624        -2.214517         0.922178
 H         1.912745        -1.421017        -1.869022
