19
Iteration:  3184charge 0 multiplicity 1
 C        -0.032253         0.215450        -0.131719
 C         1.472162         0.048829        -0.278455
 O         2.218857         0.491376         0.949741
 C         2.690247         0.925281        -0.349650
 C         3.410990        -0.270656        -1.053195
 O         4.529897        -0.836992        -0.407435
 C         4.059908        -1.637375         0.627190
 C         2.826125        -2.325561         0.054268
 C         2.252556        -1.159098        -0.828504
 H        -0.587096         0.203054        -1.090199
 H        -0.538915        -0.585500         0.346281
 H        -0.187636         1.048021         0.513337
 H         2.630078         2.025282        -0.465490
 H         3.670042        -0.138034        -2.086776
 H         4.918054        -2.340538         0.848676
 H         3.868627        -1.203137         1.624913
 H         2.955916        -3.213292        -0.650491
 H         2.109288        -2.605708         0.877474
 H         1.894240        -1.553311        -1.808499
