19
Iteration:  4742charge 0 multiplicity 1
 C        -0.013429         0.185614        -0.170968
 C         1.425767         0.041972        -0.274643
 O         2.118574         0.637995         0.898808
 C         2.557766         0.922922        -0.486964
 C         3.520595        -0.232782        -1.031450
 O         4.548158        -0.625387        -0.177929
 C         4.240379        -1.902950         0.456870
 C         2.763734        -2.395283         0.100883
 C         2.255124        -1.210235        -0.757055
 H        -0.631929         0.505749        -1.025974
 H        -0.280777        -0.828050         0.015920
 H        -0.345311         0.718293         0.769404
 H         2.642203         1.981684        -0.577505
 H         3.760728        -0.043149        -2.098846
 H         5.089665        -2.412957         0.136220
 H         4.331244        -1.857982         1.573511
 H         2.706902        -3.287437        -0.435402
 H         2.121917        -2.553969         0.978659
 H         1.803393        -1.652747        -1.639247
