19
Iteration:  3547charge 0 multiplicity 1
 C         0.011850         0.370194        -0.541985
 C         1.361785        -0.010053        -0.091779
 O         1.977082         0.498825         1.132067
 C         2.626577         0.842500        -0.286267
 C         3.331331        -0.290200        -0.911148
 O         4.558350        -0.637627        -0.420674
 C         4.429067        -1.911241         0.219666
 C         2.905578        -2.237453         0.251552
 C         2.208900        -1.208978        -0.630675
 H         0.069926         0.171762        -1.605175
 H        -0.772671        -0.297194        -0.087836
 H        -0.318452         1.416771        -0.470053
 H         2.660235         1.893912        -0.393720
 H         3.367579         0.035994        -1.939156
 H         4.854251        -2.641129        -0.496178
 H         5.070485        -2.022805         1.133205
 H         2.712682        -3.225128        -0.243338
 H         2.486349        -2.352977         1.308597
 H         1.660512        -1.740295        -1.416818
