19
Iteration:   382charge 0 multiplicity 1
 C        -0.033933         0.470476        -0.335672
 C         1.399357        -0.032252        -0.249847
 O         2.114947         0.249846         1.114291
 C         2.559626         0.942847        -0.096445
 C         3.419993        -0.143571        -0.908750
 O         4.590961        -0.626400        -0.317178
 C         4.266763        -1.899332         0.367036
 C         2.878319        -2.400516        -0.089794
 C         2.169408        -1.140831        -0.831862
 H        -0.435494         0.583082         0.748857
 H        -0.066301         1.417836        -0.929068
 H        -0.621585        -0.363344        -0.876929
 H         2.570487         2.021055        -0.284136
 H         3.756222         0.243623        -1.883214
 H         5.128417        -2.515505         0.012486
 H         4.328503        -1.743887         1.428303
 H         2.996002        -3.248314        -0.919247
 H         2.246916        -2.771986         0.690896
 H         1.750262        -1.494035        -1.715693
