19
Iteration:  1224charge 0 multiplicity 1
 C        -0.002689         0.114141        -0.325887
 C         1.457671         0.052270        -0.284486
 O         1.951705         0.198545         1.075420
 C         2.621569         0.953484        -0.006535
 C         3.566289        -0.007000        -0.894465
 O         4.615746        -0.729728        -0.361091
 C         4.197073        -1.938995         0.208940
 C         2.676394        -2.151440         0.078714
 C         2.332403        -0.959348        -0.868884
 H        -0.405382        -0.625526         0.469876
 H        -0.417915         1.093306        -0.086993
 H        -0.321203        -0.238556        -1.335275
 H         2.730436         2.029770         0.137051
 H         3.829611         0.391800        -1.888702
 H         4.709457        -2.715794        -0.401008
 H         4.632547        -2.099840         1.231280
 H         2.563120        -3.048980        -0.418270
 H         2.220489        -2.081868         1.094960
 H         2.055777        -1.294463        -1.844980
