19
Iteration:  1590
 C         0.028436         0.065874        -0.307387
 C         1.522003         0.007677        -0.132835
 O         2.153472         0.469160         1.074862
 C         2.535557         1.055737        -0.230447
 C         3.500326        -0.065381        -0.865532
 O         4.535209        -0.634724        -0.120995
 C         4.147587        -2.090584         0.151591
 C         2.632913        -2.307739        -0.040152
 C         2.323283        -1.025613        -0.897543
 H        -0.269700        -0.262991         0.713195
 H        -0.277850         1.065384        -0.577414
 H        -0.170209        -0.690672        -1.169799
 H         2.429663         2.118624        -0.122438
 H         3.780986         0.259623        -1.880972
 H         4.722767        -2.682175        -0.627256
 H         4.614762        -2.286050         1.061623
 H         2.520336        -3.333558        -0.358453
 H         2.097863        -2.394436         0.863033
 H         2.113967        -1.145295        -2.008694
