19
Iteration:  3258
 C        -0.013174         0.375542        -0.484530
 C         1.390949         0.001701        -0.122770
 O         2.073638         0.301855         1.050641
 C         2.639481         0.843687        -0.165478
 C         3.331360        -0.252857        -0.994726
 O         4.618063        -0.759488        -0.586541
 C         4.351977        -1.754044         0.357063
 C         2.749238        -2.161258         0.302498
 C         2.245749        -1.190886        -0.665428
 H        -0.052195         0.714469        -1.584677
 H        -0.774624        -0.388651        -0.668780
 H        -0.403241         1.148394         0.203763
 H         2.838787         1.924604        -0.217618
 H         3.426502         0.109037        -2.054537
 H         5.133836        -2.543333         0.274042
 H         4.424472        -1.372793         1.404288
 H         2.804212        -3.241015         0.032121
 H         2.352315        -2.193018         1.290678
 H         1.699348        -1.517467        -1.553345
