19
Iteration:   125
 C        -0.097758         0.188089        -0.167261
 C         1.442445         0.135495        -0.387580
 O         1.934533         0.155078         1.020503
 C         2.708499         0.869486         0.058039
 C         3.572495        -0.037005        -0.903611
 O         4.694568        -0.722260        -0.440860
 C         4.125716        -1.838475         0.452206
 C         2.740045        -2.245220        -0.112587
 C         2.333627        -1.011769        -1.012791
 H        -0.480056         1.097704         0.450409
 H        -0.843959         0.043294        -1.045196
 H        -0.157931        -0.731978         0.529156
 H         2.921239         1.926365         0.293470
 H         3.819552         0.633645        -1.727146
 H         4.972812        -2.467559         0.482333
 H         3.905695        -1.436815         1.494827
 H         2.652540        -3.351074        -0.448312
 H         1.990618        -2.228041         0.853143
 H         2.119561        -1.474332        -2.013427
