19
Iteration:   361charge 0 multiplicity 1
 C        -0.145488         0.611469        -0.232385
 C         1.241477         0.013809        -0.103784
 O         1.811633         0.356820         1.078950
 C         2.617242         0.840064        -0.149820
 C         3.494167        -0.189241        -0.890636
 O         4.665698        -0.768237        -0.369984
 C         4.355525        -1.892047         0.369081
 C         3.000981        -2.373283        -0.178384
 C         2.376455        -1.216447        -0.887625
 H        -0.407114         0.954858         0.836242
 H        -0.254163         1.432991        -0.947332
 H        -0.892793        -0.204591        -0.495285
 H         2.736263         1.914476        -0.206674
 H         3.664865         0.277963        -1.883318
 H         5.129604        -2.602556         0.184458
 H         4.295436        -1.557706         1.391427
 H         3.052904        -3.375895        -0.842648
 H         2.452935        -2.721213         0.670886
 H         2.157435        -1.406659        -1.891687
