19
Iteration:  3912
 C        -0.133047         0.165370        -0.375174
 C         1.361966         0.078025        -0.262909
 O         1.941937         0.466779         0.902135
 C         2.547563         1.041783        -0.325569
 C         3.506568        -0.043875        -0.871772
 O         4.641549        -0.716483        -0.141273
 C         4.314335        -2.181260         0.000464
 C         2.906624        -2.150221         0.416955
 C         2.325941        -1.169328        -0.707787
 H        -0.434539        -0.326635        -1.361301
 H        -0.666510        -0.348352         0.423312
 H        -0.483837         1.219104        -0.157085
 H         2.528983         2.130595        -0.056423
 H         3.916483         0.141292        -1.888231
 H         4.482426        -2.857838        -0.915272
 H         5.081728        -2.619172         0.636695
 H         2.443688        -3.147107         0.165046
 H         2.730292        -1.858736         1.434604
 H         1.967262        -1.546968        -1.666543
