19
Iteration:  1761
 C        -0.129723         0.231376        -0.408639
 C         1.412929         0.113334        -0.273478
 O         1.964755         0.333408         1.043570
 C         2.627089         0.957695        -0.079363
 C         3.493134        -0.054752        -0.790962
 O         4.595536        -0.685426        -0.140197
 C         4.307982        -2.082200        -0.120044
 C         2.835835        -2.252157         0.139908
 C         2.280935        -1.095042        -0.716587
 H        -0.570582        -0.497814         0.257399
 H        -0.359028         1.211437        -0.095537
 H        -0.326591        -0.082819        -1.403012
 H         2.689037         2.036606        -0.074804
 H         3.887394         0.494728        -1.669101
 H         4.578957        -2.433916        -1.141672
 H         5.037347        -2.696667         0.579758
 H         2.413661        -3.277622        -0.019167
 H         2.416396        -1.887678         1.127306
 H         2.188664        -1.382630        -1.738376
