19
Iteration:  1368
 C        -0.064293         0.261432        -0.372095
 C         1.454592        -0.021922        -0.104491
 O         2.067660         0.318535         1.085540
 C         2.531147         1.070931        -0.158169
 C         3.499658        -0.036170        -0.823775
 O         4.524590        -0.655330        -0.051278
 C         4.379197        -2.085764        -0.006426
 C         2.767363        -2.316781        -0.069807
 C         2.250986        -1.102946        -0.882643
 H        -0.620392        -0.173904         0.499195
 H        -0.268539         1.400802        -0.284492
 H        -0.221141        -0.232521        -1.337076
 H         2.579614         2.170300        -0.077277
 H         3.835745         0.250003        -1.838368
 H         4.868613        -2.548993        -0.865424
 H         4.680459        -2.407849         0.993068
 H         2.379657        -3.215748        -0.462085
 H         2.578479        -2.062422         0.989025
 H         1.749030        -1.348136        -1.866640
