19
Iteration:   166
 C         0.004690         0.227605        -0.226805
 C         1.454304        -0.009872        -0.127520
 O         2.241202         0.264830         1.106993
 C         2.553294         0.945400        -0.149502
 C         3.474546        -0.014695        -0.996974
 O         4.520529        -0.628325        -0.228371
 C         4.040324        -1.868916         0.491673
 C         2.847083        -2.408110        -0.324930
 C         2.295534        -1.078184        -0.948106
 H        -0.409253         1.011407         0.444996
 H        -0.248746         0.503702        -1.240954
 H        -0.504388        -0.673784        -0.002118
 H         2.468425         2.062989        -0.089179
 H         3.876857         0.373673        -1.941123
 H         4.847975        -2.574213         0.591751
 H         3.711294        -1.568241         1.533249
 H         3.119577        -3.049979        -1.086586
 H         2.103817        -2.860304         0.281914
 H         1.679730        -1.261199        -1.883050
