19
Iteration:  3002charge 0 multiplicity 1
 C         0.013698         0.308110        -0.247208
 C         1.448123         0.049611        -0.242225
 O         2.064924         0.228736         1.029130
 C         2.713593         0.804612        -0.123604
 C         3.465393        -0.188782        -1.055956
 O         4.593008        -0.863651        -0.636129
 C         4.189464        -1.650718         0.517557
 C         2.686233        -2.073693         0.236560
 C         2.226987        -1.157393        -0.855343
 H        -0.433260        -0.651898        -0.628398
 H        -0.386241         0.425315         0.824734
 H        -0.282752         1.109180        -0.948353
 H         2.840199         1.925063        -0.128811
 H         3.721868         0.161736        -2.099909
 H         4.859089        -2.526738         0.573289
 H         4.420498        -0.897469         1.327788
 H         2.662721        -3.094011        -0.057223
 H         2.067217        -2.130785         1.155602
 H         1.945183        -1.605183        -1.801753
