19
Iteration:  2468
 C        -0.070227         0.499105        -0.287713
 C         1.351790         0.028593        -0.199024
 O         2.084552         0.307900         0.940903
 C         2.576717         0.893350        -0.258050
 C         3.422793        -0.168018        -0.913996
 O         4.613600        -0.702579        -0.248727
 C         4.395534        -1.935765         0.309782
 C         2.825601        -2.303470         0.164062
 C         2.187342        -1.208866        -0.903553
 H        -0.468229         1.307996        -1.011942
 H        -0.717800        -0.356241        -0.532575
 H        -0.425330         0.805390         0.764470
 H         2.673409         2.018646        -0.327773
 H         3.787985         0.178828        -1.873931
 H         5.115764        -2.716382        -0.117923
 H         4.783917        -1.872059         1.375777
 H         2.668712        -3.308528        -0.183093
 H         2.135065        -2.131481         1.061613
 H         1.865363        -1.606546        -1.894018
