19
Iteration:  3802charge 0 multiplicity 1
 C        -0.030253         0.141441        -0.240843
 C         1.456606         0.013873        -0.282703
 O         2.154846         0.432981         0.958527
 C         2.560171         0.947391        -0.344051
 C         3.410906        -0.100016        -0.960015
 O         4.596250        -0.692148        -0.338406
 C         4.206963        -1.887455         0.498109
 C         2.817957        -2.274050         0.126442
 C         2.257249        -1.125722        -0.817210
 H        -0.404236         0.514672        -1.232326
 H        -0.576844        -0.743153         0.163833
 H        -0.260082         0.960113         0.481755
 H         2.503432         2.002160        -0.356221
 H         3.685758         0.154090        -1.973704
 H         4.862070        -2.744810         0.182560
 H         4.326689        -1.745696         1.570711
 H         2.606853        -3.207258        -0.485810
 H         2.170128        -2.457490         0.973031
 H         1.783267        -1.497956        -1.732382
