19
Iteration:   860charge 0 multiplicity 1
 C         0.052368         0.507338        -0.421276
 C         1.387504        -0.043039        -0.047616
 O         1.996473         0.250813         1.185592
 C         2.570987         0.907356        -0.060881
 C         3.402271        -0.195160        -0.962751
 O         4.575018        -0.739713        -0.510396
 C         4.303017        -1.745180         0.414546
 C         2.952696        -2.367230        -0.143696
 C         2.182428        -1.187269        -0.774584
 H        -0.733266        -0.260332        -0.333396
 H        -0.344943         1.279057         0.318868
 H         0.009336         0.937669        -1.460069
 H         2.619367         2.023255        -0.136389
 H         3.535225         0.220273        -1.986689
 H         5.142215        -2.472316         0.485442
 H         4.120755        -1.226439         1.404459
 H         3.142477        -3.309431        -0.767421
 H         2.353961        -2.730117         0.642053
 H         1.657176        -1.502994        -1.735787
