19
Iteration:  4308
 C         0.038423         0.347967        -0.126332
 C         1.423731        -0.098116        -0.277793
 O         2.196299         0.278760         0.914786
 C         2.616000         0.861238        -0.372048
 C         3.403557        -0.136494        -1.045110
 O         4.504686        -0.679760        -0.347615
 C         4.125776        -1.575522         0.664528
 C         2.814492        -2.373261         0.080380
 C         2.257968        -1.210841        -0.926657
 H        -0.370474         0.460901        -1.164660
 H        -0.590174        -0.566237         0.351711
 H        -0.125814         1.326912         0.494010
 H         2.678302         1.948658        -0.442816
 H         3.731008         0.058620        -2.105869
 H         4.919114        -2.375160         0.807765
 H         4.048107        -1.043242         1.675666
 H         3.209553        -3.272800        -0.423483
 H         1.981271        -2.471917         0.883346
 H         2.007439        -1.765449        -1.849157
