19
Iteration:  1069charge 0 multiplicity 1
 C        -0.030807         0.020005        -0.080362
 C         1.461715         0.025320        -0.188349
 O         2.165851         0.340470         0.985976
 C         2.637126         0.984000        -0.287874
 C         3.559731        -0.053163        -0.956670
 O         4.562572        -0.752563        -0.190390
 C         4.135509        -1.930507         0.395527
 C         2.615596        -2.190798        -0.174374
 C         2.342830        -0.934320        -0.958941
 H        -0.230992        -0.849820         0.628109
 H        -0.485828         0.961525         0.353994
 H        -0.450450        -0.294862        -1.060519
 H         2.668896         2.073590        -0.254430
 H         4.005498         0.305236        -1.890939
 H         4.790578        -2.730465         0.072333
 H         4.114826        -1.794862         1.522606
 H         2.443244        -3.150141        -0.613128
 H         1.964791        -2.172150         0.668120
 H         1.734677        -1.129641        -1.870039
