19
Iteration:  2495
 C        -0.028258         0.118852        -0.228434
 C         1.459310         0.018366        -0.209796
 O         2.176696         0.489189         0.990515
 C         2.676568         0.963100        -0.246346
 C         3.484064        -0.108957        -1.001907
 O         4.574578        -0.739221        -0.282039
 C         4.172143        -1.924608         0.402128
 C         2.615962        -2.250207         0.055723
 C         2.274824        -1.105195        -0.829348
 H        -0.425731         0.664110        -1.029834
 H        -0.597401        -0.816378        -0.285476
 H        -0.375939         0.559400         0.659943
 H         2.788745         2.002875        -0.392630
 H         3.813158         0.175068        -2.034986
 H         4.824587        -2.754694         0.082058
 H         4.468223        -1.777501         1.426150
 H         2.636999        -3.045257        -0.746660
 H         1.861329        -2.367725         0.773453
 H         1.997982        -1.501232        -1.813722
