19
Iteration:  3706
 C        -0.031798         0.230267        -0.153193
 C         1.404325         0.023819        -0.151714
 O         2.134231         0.560997         0.969031
 C         2.534900         0.895331        -0.388720
 C         3.477948        -0.232319        -0.969981
 O         4.562527        -0.664361        -0.224518
 C         4.236269        -1.855668         0.466011
 C         2.824521        -2.394026        -0.154857
 C         2.203712        -1.170141        -0.762865
 H        -0.444105        -0.074057        -1.133497
 H        -0.503777        -0.142898         0.680748
 H        -0.157682         1.315612        -0.062147
 H         2.536651         1.938910        -0.661121
 H         3.856747        -0.041365        -1.971067
 H         5.123780        -2.517662         0.403720
 H         4.213704        -1.635422         1.548030
 H         3.198910        -3.215458        -0.731844
 H         2.144184        -2.926226         0.503366
 H         1.945334        -1.339780        -1.826673
