19
Iteration:  1487charge 0 multiplicity 1
 C        -0.060114         0.478489        -0.413447
 C         1.371310        -0.018486        -0.164632
 O         2.119634         0.267532         1.066672
 C         2.593830         0.887963        -0.133728
 C         3.362680        -0.165953        -0.939884
 O         4.396128        -0.575026        -0.025280
 C         4.399363        -1.992770         0.021725
 C         2.981137        -2.376342         0.042055
 C         2.197380        -1.132865        -0.829682
 H        -0.827249        -0.319935        -0.409946
 H        -0.344041         1.308463         0.323812
 H        -0.030373         0.991030        -1.374691
 H         2.855758         1.972253        -0.077839
 H         3.742593         0.056899        -1.959451
 H         4.914022        -2.388356        -0.863684
 H         4.997337        -2.156500         1.026119
 H         2.829478        -3.361084        -0.390450
 H         2.633996        -2.187589         1.114035
 H         1.683162        -1.491255        -1.748923
