19
Iteration:   285
 C        -0.027463         0.079560        -0.415332
 C         1.467300        -0.021786        -0.150799
 O         2.381155         0.101907         1.127965
 C         2.668543         0.912745         0.005047
 C         3.511605        -0.021840        -0.930779
 O         4.561672        -0.674856        -0.347810
 C         3.991140        -1.766832         0.409960
 C         2.568895        -2.150649        -0.093261
 C         2.278431        -0.994119        -0.978555
 H        -0.333409         1.137553        -0.410715
 H        -0.131252        -0.289813        -1.387039
 H        -0.638152        -0.488961         0.218606
 H         2.676836         2.013457         0.161785
 H         3.652648         0.498202        -1.896219
 H         4.707984        -2.578711         0.307586
 H         4.052208        -1.437317         1.437167
 H         2.590138        -3.156669        -0.602056
 H         1.932477        -2.187378         0.730211
 H         1.779358        -1.127326        -1.917973
