19
Iteration:  1868
 C        -0.056439        -0.014732        -0.199454
 C         1.442751        -0.046947        -0.189594
 O         2.212920         0.362146         1.000870
 C         2.592615         1.068006        -0.191291
 C         3.514705         0.030733        -0.880448
 O         4.620046        -0.774708        -0.251849
 C         4.116138        -1.947800         0.301978
 C         2.659812        -2.238810        -0.058980
 C         2.324809        -0.951876        -0.922668
 H        -0.522873        -1.027097         0.095659
 H        -0.563584         0.875049         0.301025
 H        -0.307230         0.262328        -1.226532
 H         2.600812         2.170244        -0.127766
 H         3.951658         0.433006        -1.785931
 H         4.821610        -2.739955         0.167992
 H         3.967453        -1.804510         1.381262
 H         2.536951        -3.063951        -0.747353
 H         1.962529        -2.388532         0.793624
 H         1.965489        -1.228993        -1.874463
