19
Iteration:  1484
 C        -0.040235         0.461823        -0.431690
 C         1.386691         0.008175        -0.159843
 O         2.100110         0.262399         1.082919
 C         2.602665         0.902289        -0.140186
 C         3.342169        -0.191853        -0.939403
 O         4.402236        -0.590756        -0.044840
 C         4.402899        -1.978773         0.044478
 C         2.977697        -2.369513         0.039357
 C         2.186273        -1.124735        -0.810919
 H        -0.894239        -0.205376        -0.473134
 H        -0.305768         1.197023         0.294284
 H        -0.028799         0.947795        -1.359672
 H         2.848130         1.964418        -0.028938
 H         3.641792         0.090980        -1.966725
 H         4.870628        -2.359327        -0.836985
 H         5.050702        -2.169732         0.913928
 H         2.883250        -3.358980        -0.470551
 H         2.728264        -2.232457         1.082534
 H         1.723842        -1.445476        -1.694182
