19
Iteration:  2833
 C         0.051426        -0.052857         0.057957
 C         1.506025         0.058219        -0.240450
 O         2.344831         0.377795         0.847378
 C         2.722057         0.992315        -0.327468
 C         3.461354        -0.151151        -1.101711
 O         4.469238        -0.777850        -0.252862
 C         3.903955        -1.726886         0.711168
 C         2.706073        -2.185155        -0.129818
 C         2.250519        -0.983464        -1.004287
 H        -0.304504         0.830738         0.639719
 H        -0.436997        -0.306130        -0.941879
 H        -0.115624        -0.988039         0.687424
 H         3.031205         2.051511        -0.448693
 H         3.808711        -0.045263        -2.115415
 H         4.546740        -2.610085         0.948945
 H         3.615428        -1.287729         1.641102
 H         2.814470        -3.150577        -0.718515
 H         1.835483        -2.486809         0.435525
 H         1.834254        -1.343521        -1.959480
