19
Iteration:  1892
 C         0.021312        -0.067396        -0.200727
 C         1.487122         0.077586        -0.239487
 O         2.238165         0.243576         1.131857
 C         2.715826         0.966508        -0.126322
 C         3.469823        -0.038299        -1.032298
 O         4.594959        -0.720508        -0.299811
 C         4.003236        -1.809892         0.502955
 C         2.644013        -2.185654        -0.132947
 C         2.259554        -0.924510        -1.049543
 H        -0.102060        -1.169387         0.133936
 H        -0.542401         0.634608         0.398243
 H        -0.372506         0.153605        -1.239042
 H         2.713474         2.094523        -0.046614
 H         3.814164         0.310708        -2.017001
 H         4.645013        -2.652645         0.460581
 H         3.886994        -1.525449         1.619782
 H         2.736143        -3.169455        -0.693512
 H         1.787739        -2.337136         0.613711
 H         1.766367        -1.257198        -1.927101
