19
Iteration:  3933charge 0 multiplicity 1
 C        -0.082085         0.088419        -0.364970
 C         1.411962         0.076038        -0.289669
 O         1.910566         0.661408         0.959129
 C         2.554107         0.973599        -0.207882
 C         3.486321        -0.251431        -0.838812
 O         4.658076        -0.681461        -0.201906
 C         4.366282        -2.089939         0.027207
 C         2.767360        -2.195127         0.239923
 C         2.329139        -1.157486        -0.658233
 H        -0.513666        -0.019744        -1.416002
 H        -0.554036        -0.691368         0.263142
 H        -0.335955         1.075660         0.102098
 H         2.680574         1.970197        -0.650264
 H         3.706961         0.186696        -1.847821
 H         4.608843        -2.947184        -0.730762
 H         4.961384        -2.361281         0.892651
 H         2.663618        -3.294257         0.148092
 H         2.484326        -1.790066         1.186735
 H         2.062193        -1.455623        -1.672763
