19
Iteration:  3312
 C        -0.053828         0.134489        -0.260300
 C         1.430107         0.095050        -0.261091
 O         1.996195         0.420585         1.052801
 C         2.705746         0.964164        -0.243075
 C         3.479050        -0.090988        -0.940407
 O         4.705839        -0.813672        -0.521326
 C         4.199445        -1.922073         0.395768
 C         2.703279        -2.212125         0.189456
 C         2.268068        -1.097049        -0.789555
 H        -0.498882        -0.365005        -1.180626
 H        -0.378313        -0.392154         0.667331
 H        -0.585827         1.095623        -0.374069
 H         2.875542         2.018882        -0.422140
 H         3.605142         0.257748        -2.006600
 H         4.762553        -2.830673         0.196821
 H         4.234426        -1.588297         1.420153
 H         2.776468        -3.267979        -0.012972
 H         2.252674        -2.126121         1.138127
 H         1.809210        -1.300539        -1.750946
