19
Iteration:   449charge 0 multiplicity 1
 C        -0.010194        -0.019071        -0.028506
 C         1.493677         0.114364        -0.338776
 O         2.032416         0.336624         0.922106
 C         2.680044         1.047641        -0.098259
 C         3.581036        -0.000621        -0.877383
 O         4.595196        -0.860209        -0.364311
 C         4.035606        -1.877008         0.561341
 C         2.691715        -2.232083        -0.189859
 C         2.323533        -0.971684        -1.015889
 H        -0.116562        -0.706734         0.869272
 H        -0.361227         1.037468         0.251269
 H        -0.602029        -0.409829        -0.886700
 H         2.833030         2.106877        -0.039487
 H         3.838033         0.287368        -1.899159
 H         4.683348        -2.783551         0.542530
 H         4.024647        -1.512951         1.616022
 H         2.853531        -3.112727        -0.885263
 H         2.035345        -2.477548         0.660659
 H         2.088912        -1.120368        -2.040896
