19
Iteration:  1078charge 0 multiplicity 1
 C        -0.006604         0.029226        -0.103376
 C         1.471515         0.073600        -0.286962
 O         2.147552         0.287952         1.030404
 C         2.617025         0.970871        -0.184891
 C         3.565623        -0.070123        -0.920874
 O         4.672305        -0.747813        -0.279188
 C         4.106515        -1.879811         0.386622
 C         2.591879        -2.171062        -0.059549
 C         2.244733        -0.992874        -1.013950
 H        -0.178533        -0.880462         0.520629
 H        -0.420500         0.981586         0.395418
 H        -0.577230        -0.117445        -1.054561
 H         2.609729         2.045141        -0.250231
 H         3.900831         0.293867        -1.901677
 H         4.850426        -2.709610         0.214469
 H         4.000241        -1.648971         1.520909
 H         2.416322        -3.098374        -0.641200
 H         1.998365        -2.207926         0.785062
 H         2.065425        -1.149338        -2.139435
