19
Iteration:  4664
 C        -0.055445         0.117872        -0.163334
 C         1.493228         0.045454        -0.194720
 O         2.205367         0.454353         1.024223
 C         2.601360         0.945649        -0.371541
 C         3.457580        -0.223728        -1.091467
 O         4.611671        -0.839349        -0.408389
 C         3.984050        -1.640677         0.680601
 C         2.862685        -2.325718         0.003640
 C         2.241711        -1.126057        -0.892894
 H        -0.474167        -0.356480        -1.058853
 H        -0.533194        -0.379575         0.675229
 H        -0.491516         1.152165        -0.033590
 H         2.742105         2.042908        -0.467068
 H         3.778506         0.225474        -2.085123
 H         4.833376        -2.229561         1.024034
 H         3.591723        -1.012964         1.483857
 H         3.315383        -3.098450        -0.620263
 H         2.218888        -2.697462         0.770190
 H         1.794427        -1.335549        -1.916406
