19
Iteration:  4848charge 0 multiplicity 1
 C        -0.108773         0.368447        -0.412143
 C         1.313383        -0.048855        -0.257678
 O         1.936596         0.391310         0.952569
 C         2.523939         0.889700        -0.337002
 C         3.449804        -0.165895        -0.909855
 O         4.673939        -0.696435        -0.334441
 C         4.420064        -2.044060         0.191206
 C         2.864286        -2.068399         0.461364
 C         2.308879        -1.231773        -0.713818
 H        -0.445922        -0.153449        -1.274147
 H        -0.787239         0.224327         0.524472
 H         0.028318         1.443737        -0.647857
 H         2.656724         1.938474        -0.305468
 H         3.494233         0.104872        -1.969295
 H         4.830704        -2.843955        -0.522860
 H         5.072897        -1.974815         1.050555
 H         2.412995        -3.080015         0.335675
 H         2.556497        -1.516699         1.380417
 H         2.012927        -1.984070        -1.453012
