19
Iteration:   473
 C        -0.075087         0.131828        -0.014671
 C         1.450733         0.035195        -0.237394
 O         2.110632         0.436957         1.040664
 C         2.580981         0.911031        -0.209555
 C         3.593294        -0.107370        -0.930312
 O         4.638199        -0.758286        -0.245464
 C         3.992393        -1.831363         0.502905
 C         2.782788        -2.325392        -0.332634
 C         2.350728        -1.050673        -1.009326
 H        -0.415734        -0.831455         0.344593
 H        -0.300732         0.884257         0.746007
 H        -0.590021         0.308378        -0.910923
 H         2.824727         1.959561        -0.405439
 H         3.926935         0.266536        -1.922105
 H         4.671990        -2.554547         0.732192
 H         3.609353        -1.345292         1.449057
 H         3.007828        -3.031317        -1.096111
 H         2.051142        -2.719501         0.438393
 H         1.992412        -1.284743        -2.052391
