19
Iteration:  1219
 C        -0.019665         0.150418        -0.355703
 C         1.453859         0.044974        -0.281919
 O         1.940528         0.199505         1.089509
 C         2.608709         0.998223         0.047638
 C         3.552579        -0.051278        -0.905895
 O         4.614975        -0.704122        -0.411394
 C         4.239729        -1.981320         0.245588
 C         2.714395        -2.189337         0.093005
 C         2.316006        -0.958857        -0.881556
 H        -0.440039        -0.531101         0.328486
 H        -0.289225         1.211923        -0.204209
 H        -0.375376        -0.166981        -1.331912
 H         2.678413         2.094940         0.176199
 H         3.816603         0.455206        -1.849113
 H         4.867204        -2.694841        -0.300992
 H         4.653649        -2.074370         1.253918
 H         2.538760        -3.224174        -0.409787
 H         2.291776        -2.188229         1.082853
 H         1.843449        -1.294949        -1.853275
