19
Iteration:  3900charge 0 multiplicity 1
 C        -0.121323         0.196998        -0.405053
 C         1.377777         0.014167        -0.261872
 O         2.017979         0.420881         0.986718
 C         2.502772         1.010184        -0.252040
 C         3.511542        -0.181182        -0.925393
 O         4.594819        -0.678993        -0.110864
 C         4.343344        -2.114883        -0.022601
 C         2.844365        -2.122679         0.372464
 C         2.333868        -1.101665        -0.723428
 H        -0.496834        -0.252383        -1.383482
 H        -0.621673        -0.299339         0.444329
 H        -0.378246         1.257935        -0.632257
 H         2.633062         2.071268        -0.453145
 H         3.772378         0.160199        -1.968414
 H         4.362210        -2.514932        -1.110677
 H         5.014905        -2.498827         0.719327
 H         2.428438        -3.166302         0.523038
 H         2.739587        -1.617724         1.300037
 H         2.094976        -1.748933        -1.551416
