19
Iteration:   660
 C        -0.063501         0.505173        -0.186276
 C         1.381047         0.055629        -0.216127
 O         1.919693         0.340496         1.098979
 C         2.585659         0.937599        -0.176922
 C         3.421546        -0.157055        -0.983463
 O         4.632963        -0.737177        -0.324300
 C         4.225612        -1.907486         0.473925
 C         3.029886        -2.401690        -0.222563
 C         2.293916        -1.226599        -0.880108
 H        -0.322154         0.055287         0.777823
 H        -0.051177         1.579818        -0.072381
 H        -0.870706         0.179432        -0.849692
 H         2.546384         1.996002        -0.329837
 H         3.776571         0.116703        -1.985560
 H         4.982020        -2.606095         0.525977
 H         3.956585        -1.542431         1.559871
 H         3.280457        -3.005659        -1.074837
 H         2.379234        -2.870440         0.509029
 H         1.851282        -1.558881        -1.881521
