19
Iteration:  1916
 C        -0.003182         0.115114        -0.119402
 C         1.462426         0.026026        -0.229019
 O         2.170255         0.180569         1.001016
 C         2.734158         0.939155        -0.131429
 C         3.506240        -0.056192        -0.905541
 O         4.560873        -0.732452        -0.372418
 C         3.966275        -1.655248         0.572664
 C         2.758631        -2.284696        -0.265881
 C         2.258701        -1.020169        -0.979374
 H        -0.228313        -0.873018         0.342345
 H        -0.340608         0.886793         0.544870
 H        -0.534526         0.283783        -1.113757
 H         2.821807         1.999068         0.132517
 H         3.810338         0.290960        -1.926859
 H         4.726106        -2.445116         0.777021
 H         3.703569        -1.206751         1.610057
 H         3.136053        -3.204103        -0.863044
 H         1.978501        -2.730128         0.433287
 H         1.897572        -1.273502        -2.030172
