19
Iteration:  4037charge 0 multiplicity 1
 C        -0.152067         0.247661        -0.171229
 C         1.347047        -0.036036        -0.314483
 O         2.090316         0.391209         0.904416
 C         2.579685         0.912571        -0.395185
 C         3.584026        -0.125764        -0.938136
 O         4.658132        -0.632964        -0.267794
 C         4.206931        -1.903618         0.440161
 C         2.755174        -2.263021         0.177503
 C         2.304517        -1.140516        -0.866188
 H        -0.748510        -0.128040        -0.970810
 H        -0.359859        -0.444196         0.699867
 H        -0.489391         1.255403         0.114147
 H         2.599192         1.987983        -0.585545
 H         3.840118         0.076686        -1.996229
 H         4.892474        -2.581244        -0.105467
 H         4.475666        -1.745188         1.553986
 H         2.682794        -3.325255        -0.118669
 H         2.277387        -2.280867         1.211287
 H         2.216056        -1.568810        -1.909584
