19
Iteration:  2961
 C        -0.041257         0.334368        -0.327881
 C         1.438219         0.013102        -0.189944
 O         2.161283         0.338576         1.022682
 C         2.625342         0.881517        -0.187291
 C         3.418404        -0.185424        -0.950418
 O         4.603396        -0.863633        -0.607642
 C         4.252753        -1.690466         0.441046
 C         2.728990        -2.247420         0.217168
 C         2.254688        -1.152850        -0.737208
 H        -0.596009        -0.503254        -0.579951
 H        -0.581546         0.845405         0.504244
 H        -0.116455         0.844106        -1.264422
 H         2.629584         1.982431        -0.205523
 H         3.400525         0.286855        -1.945778
 H         4.942540        -2.513666         0.269679
 H         4.187659        -1.294182         1.468511
 H         2.756661        -3.207731        -0.305150
 H         2.065366        -2.222207         1.105413
 H         1.822417        -1.590980        -1.605198
