19
Iteration:  2095
 C         0.014360         0.259260        -0.485262
 C         1.478710        -0.060256        -0.096573
 O         2.049416         0.444171         1.139463
 C         2.551558         0.981318        -0.094002
 C         3.439433        -0.049369        -0.782303
 O         4.524843        -0.589986        -0.121316
 C         4.348082        -2.051240        -0.062340
 C         2.801017        -2.377105        -0.001540
 C         2.213991        -1.170552        -0.795277
 H        -0.671377        -0.545440        -0.197072
 H        -0.363277         1.111086         0.112071
 H        -0.070333         0.516270        -1.527790
 H         2.421506         2.064925        -0.426351
 H         3.646142         0.306702        -1.833425
 H         4.746870        -2.473568        -0.885142
 H         4.874355        -2.314158         0.820974
 H         2.591722        -3.315128        -0.552407
 H         2.636917        -2.416814         1.075179
 H         1.694918        -1.313001        -1.773218
