19
Iteration:  2259
 C        -0.095956         0.221758        -0.120097
 C         1.423253         0.048411        -0.141273
 O         2.110539         0.474600         1.039402
 C         2.561920         1.044717        -0.247190
 C         3.479735        -0.167773        -0.902733
 O         4.581910        -0.736364        -0.187869
 C         4.208954        -1.961086         0.441593
 C         2.892206        -2.358487        -0.354129
 C         2.219829        -1.113095        -0.939544
 H        -0.687480        -0.672477        -0.325017
 H        -0.363169         0.518783         0.846288
 H        -0.320473         1.033948        -0.811743
 H         2.625714         2.128193        -0.177775
 H         3.954753         0.178189        -1.835899
 H         4.984385        -2.798002         0.207042
 H         4.000227        -1.826791         1.522843
 H         3.260635        -2.972248        -1.134611
 H         2.318537        -2.858213         0.398783
 H         1.731616        -1.443361        -1.874934
