19
Iteration:    78
 C        -0.047258         0.371860        -0.553285
 C         1.394829        -0.017457        -0.078573
 O         2.246560         0.200615         1.293976
 C         2.528490         0.856283        -0.007068
 C         3.400292        -0.033704        -0.909358
 O         4.571885        -0.661047        -0.443408
 C         4.177678        -1.827870         0.324143
 C         2.802184        -2.379702        -0.101071
 C         2.309332        -1.103001        -0.834904
 H        -0.391623         1.403965        -0.274184
 H         0.024140         0.376761        -1.630532
 H        -0.760109        -0.378320        -0.256049
 H         2.466714         1.964898        -0.191017
 H         3.602928         0.373787        -1.904749
 H         5.029911        -2.506420         0.319524
 H         4.032525        -1.470466         1.369731
 H         2.794954        -3.225423        -0.698959
 H         2.230146        -2.655437         0.747338
 H         1.957457        -1.252617        -1.881229
