19
Iteration:  2813
 C         0.029074        -0.004360        -0.036726
 C         1.518947         0.073794        -0.201797
 O         2.280053         0.485751         0.998856
 C         2.669694         0.946242        -0.330739
 C         3.585101        -0.167047        -1.013190
 O         4.606270        -0.755012        -0.342627
 C         3.872354        -1.689939         0.558312
 C         2.608331        -2.328861        -0.102924
 C         2.233145        -1.074569        -0.984004
 H        -0.533753         0.970457         0.022828
 H        -0.432418        -0.642258        -0.763932
 H        -0.097503        -0.495506         0.955943
 H         2.767292         2.024774        -0.400635
 H         4.020412         0.139660        -1.978219
 H         4.610443        -2.506179         0.730604
 H         3.586774        -1.318641         1.515090
 H         2.895054        -3.197367        -0.679764
 H         2.030387        -2.809200         0.627450
 H         1.645596        -1.245083        -1.929125
