19
Iteration:  3717
 C        -0.118084         0.240492        -0.080385
 C         1.408919        -0.093178        -0.154984
 O         2.136822         0.550817         0.915087
 C         2.602824         0.911053        -0.376483
 C         3.497748        -0.184872        -0.968906
 O         4.660189        -0.717392        -0.272636
 C         4.134655        -1.828343         0.568095
 C         2.850881        -2.321378        -0.114244
 C         2.261490        -1.172772        -0.878492
 H        -0.634854        -0.038115        -1.025909
 H        -0.633441        -0.317796         0.629259
 H        -0.260127         1.317729         0.051470
 H         2.532126         1.976150        -0.464024
 H         3.726304         0.093953        -1.988595
 H         4.828654        -2.676211         0.449918
 H         3.985835        -1.441180         1.583609
 H         3.078270        -2.935504        -0.992589
 H         2.168119        -2.784541         0.591512
 H         1.667860        -1.469861        -1.774884
