19
Iteration:  3242
 C         0.063761         0.485780        -0.496128
 C         1.400975        -0.020007        -0.166881
 O         2.111836         0.353748         1.092386
 C         2.614042         0.846933        -0.219743
 C         3.326606        -0.243261        -1.010991
 O         4.521486        -0.682184        -0.557888
 C         4.334835        -1.738436         0.501285
 C         2.935321        -2.308858         0.282275
 C         2.098540        -1.321768        -0.763958
 H         0.051008         1.168115        -1.326555
 H        -0.645876        -0.395948        -0.502028
 H        -0.319786         1.156725         0.297435
 H         2.621482         1.941456        -0.200930
 H         3.368815         0.063818        -2.069491
 H         4.929009        -2.533097         0.094625
 H         4.616764        -1.352833         1.492941
 H         2.777438        -3.256576        -0.223311
 H         2.343082        -2.367556         1.251214
 H         1.698738        -1.910205        -1.604630
