19
Iteration:  2526
 C         0.029807        -0.088646        -0.130173
 C         1.490104         0.095551        -0.145612
 O         2.306101         0.501761         1.030025
 C         2.658124         1.072366        -0.310273
 C         3.502230        -0.103741        -1.077890
 O         4.533095        -0.814543        -0.259501
 C         3.989010        -1.881270         0.518510
 C         2.608573        -2.270182        -0.150496
 C         2.315985        -0.990038        -0.887487
 H        -0.252788        -0.174750        -1.139006
 H        -0.132242        -1.050869         0.437883
 H        -0.528640         0.665190         0.331233
 H         2.680695         2.132674        -0.372813
 H         3.926352         0.063759        -2.079179
 H         4.780042        -2.696405         0.743438
 H         3.619917        -1.348750         1.395807
 H         2.583751        -3.033526        -0.916613
 H         1.747550        -2.478147         0.549023
 H         1.895950        -1.406424        -1.801617
