19
Iteration:  4128
 C        -0.021356         0.360740        -0.176630
 C         1.383115        -0.058080        -0.324656
 O         2.069908         0.352238         0.927801
 C         2.612375         0.915680        -0.270602
 C         3.429264        -0.214307        -1.056172
 O         4.565810        -0.733412        -0.451285
 C         4.178439        -1.634949         0.672304
 C         2.928565        -2.336723         0.125048
 C         2.271257        -1.266717        -0.840990
 H        -0.592757         0.669469        -1.106239
 H        -0.623685        -0.428846         0.322267
 H        -0.102418         1.197797         0.539007
 H         2.853376         1.985474        -0.379862
 H         3.625668         0.002134        -2.136302
 H         5.020821        -2.290893         0.974274
 H         3.734115        -1.036857         1.542032
 H         3.137877        -3.207441        -0.613115
 H         2.284818        -2.797872         0.865230
 H         1.974514        -1.519606        -1.906776
