19
Iteration:  2499
 C        -0.005151         0.075893        -0.239362
 C         1.471089        -0.003249        -0.168616
 O         2.208147         0.521794         0.977549
 C         2.680845         0.963039        -0.243302
 C         3.479901        -0.113522        -0.962523
 O         4.572110        -0.752309        -0.291393
 C         4.151843        -1.905502         0.405924
 C         2.585332        -2.255017         0.049168
 C         2.279429        -1.077555        -0.884143
 H        -0.483530         0.623626        -1.168669
 H        -0.459766        -0.949671        -0.180487
 H        -0.407413         0.546073         0.750825
 H         2.768254         2.066497        -0.418985
 H         3.848675         0.222367        -1.938496
 H         4.759825        -2.725183         0.052327
 H         4.385766        -1.716791         1.486060
 H         2.739355        -3.064229        -0.711995
 H         1.711880        -2.409268         0.786397
 H         1.803815        -1.439676        -1.844633
