19
Iteration:  2099charge 0 multiplicity 1
 C         0.020160         0.282556        -0.471391
 C         1.452008        -0.063373        -0.084887
 O         2.059500         0.456842         1.121832
 C         2.543912         0.974684        -0.067193
 C         3.436261        -0.062354        -0.797134
 O         4.516651        -0.587999        -0.129596
 C         4.378583        -2.023856        -0.024790
 C         2.813838        -2.397251        -0.035562
 C         2.170935        -1.167955        -0.791085
 H        -0.596407        -0.601189        -0.170737
 H        -0.417462         1.199311        -0.070836
 H         0.009564         0.564008        -1.568876
 H         2.481820         1.994661        -0.378777
 H         3.692798         0.316826        -1.790227
 H         4.829797        -2.613904        -0.971699
 H         5.005100        -2.376875         0.851026
 H         2.756618        -3.326451        -0.568129
 H         2.462312        -2.469536         1.033210
 H         1.628097        -1.422514        -1.680100
