19
Iteration:  3168charge 0 multiplicity 1
 C         0.050263         0.070042        -0.068830
 C         1.484324         0.021510        -0.181131
 O         2.294919         0.482266         0.876897
 C         2.653593         0.982675        -0.415067
 C         3.509599        -0.141475        -1.068994
 O         4.575683        -0.775209        -0.366439
 C         3.989418        -1.735445         0.667215
 C         2.653480        -2.278125         0.067320
 C         2.197789        -1.170293        -0.909388
 H        -0.448168        -0.244929        -1.024793
 H        -0.207593        -0.775030         0.688869
 H        -0.400398         1.080197         0.162253
 H         2.959448         2.008250        -0.581062
 H         3.780894         0.190322        -2.113401
 H         4.665741        -2.564545         0.918293
 H         3.780993        -0.966752         1.415796
 H         2.889315        -3.241346        -0.399888
 H         1.830710        -2.603945         0.717692
 H         1.630890        -1.509716        -1.779015
