19
Iteration:  2934charge 0 multiplicity 1
 C         0.035566         0.412406        -0.302382
 C         1.439434        -0.008180        -0.053341
 O         2.102307         0.581866         1.050319
 C         2.583149         0.867703        -0.243877
 C         3.371074        -0.250589        -1.069358
 O         4.575801        -0.744823        -0.452930
 C         4.245080        -1.865093         0.484805
 C         2.910986        -2.397911         0.007328
 C         2.191638        -1.201219        -0.740101
 H        -0.709441        -0.458553        -0.030811
 H        -0.312644         1.293146         0.222255
 H        -0.045328         0.473452        -1.425283
 H         2.398514         1.913732        -0.451809
 H         3.494965         0.186135        -2.073578
 H         5.055978        -2.635495         0.370715
 H         4.090003        -1.520868         1.531254
 H         3.009135        -3.281486        -0.657936
 H         2.199249        -2.747342         0.785069
 H         1.515406        -1.628378        -1.549076
