19
Iteration:  1536
 C        -0.076688         0.133273        -0.166117
 C         1.454993         0.093327        -0.328086
 O         2.019481         0.418641         0.964316
 C         2.648374         0.996278        -0.198111
 C         3.565354        -0.062076        -0.852241
 O         4.518116        -0.672868        -0.021236
 C         4.277855        -2.097722         0.079074
 C         2.710601        -2.244551        -0.015173
 C         2.306571        -1.092686        -0.885716
 H        -0.200031        -0.747388         0.551273
 H        -0.412789         1.086829         0.248114
 H        -0.719498        -0.019975        -1.141241
 H         2.650056         2.078459        -0.193699
 H         3.951974         0.388586        -1.790785
 H         4.825916        -2.583296        -0.819123
 H         4.681753        -2.305899         1.027045
 H         2.356678        -3.244017        -0.414626
 H         2.425949        -2.141324         1.015374
 H         2.053861        -1.479410        -1.893196
