19
Iteration:  3379
 C        -0.022960         0.313565         0.016007
 C         1.426100        -0.056891        -0.225183
 O         2.294728         0.564225         0.850344
 C         2.592761         0.853651        -0.518682
 C         3.451257        -0.264622        -1.042091
 O         4.402437        -0.557341        -0.006192
 C         4.150889        -1.869422         0.503502
 C         2.872051        -2.443069        -0.144218
 C         2.241867        -1.206445        -0.878420
 H        -0.788480         0.427750        -0.806301
 H        -0.516224        -0.282292         0.759195
 H         0.119925         1.309985         0.451255
 H         2.485853         1.895381        -0.824550
 H         3.916097        -0.082120        -2.035086
 H         5.068985        -2.393246         0.270044
 H         4.003829        -1.764554         1.546139
 H         2.895481        -3.180446        -0.904986
 H         2.246901        -2.871895         0.613417
 H         1.735072        -1.415276        -1.830621
