19
Iteration:  1538charge 0 multiplicity 1
 C        -0.101292         0.104298        -0.165264
 C         1.460785         0.116696        -0.341354
 O         2.026569         0.422016         0.989084
 C         2.663354         1.012628        -0.200228
 C         3.546736        -0.070424        -0.846866
 O         4.521628        -0.680121        -0.025480
 C         4.272910        -2.092676         0.082545
 C         2.719417        -2.259099        -0.030027
 C         2.304619        -1.078406        -0.900332
 H        -0.180362        -0.739057         0.545902
 H        -0.434025         1.070569         0.182293
 H        -0.639838        -0.060475        -1.118844
 H         2.711366         2.119184        -0.234549
 H         3.970947         0.360924        -1.778178
 H         4.808005        -2.593046        -0.778331
 H         4.727245        -2.281629         1.042148
 H         2.272652        -3.258363        -0.344520
 H         2.383069        -2.119456         1.007219
 H         2.071176        -1.490023        -1.840865
