19
Iteration:  4941charge 0 multiplicity 1
 C        -0.074176         0.112950        -0.219246
 C         1.407809         0.099314        -0.319149
 O         2.024615         0.627187         0.849976
 C         2.639302         0.950871        -0.542024
 C         3.491440        -0.221730        -0.932062
 O         4.500785        -0.634200         0.021445
 C         4.308995        -2.064435         0.155316
 C         2.822712        -2.196079         0.259024
 C         2.308928        -1.211149        -0.679929
 H        -0.737237         0.434283        -1.080671
 H        -0.408976        -0.799852         0.119091
 H        -0.161774         0.747695         0.613081
 H         2.507947         2.026603        -0.775648
 H         3.855737        -0.243989        -2.021162
 H         4.703859        -2.564332        -0.784701
 H         4.787176        -2.601039         1.059444
 H         2.513783        -3.220269        -0.093228
 H         2.626806        -2.056696         1.304119
 H         1.906244        -1.562240        -1.665905
