19
Iteration:  1878charge 0 multiplicity 1
 C        -0.028994        -0.031470        -0.239151
 C         1.491125         0.059730        -0.109523
 O         2.250328         0.298371         1.014668
 C         2.555782         1.011449        -0.172014
 C         3.597469        -0.047724        -0.898620
 O         4.587278        -0.731225        -0.317923
 C         4.054356        -1.885400         0.421328
 C         2.600432        -2.163859        -0.143613
 C         2.307927        -0.998941        -0.946947
 H        -0.441162        -1.079769         0.037402
 H        -0.613140         0.585177         0.525963
 H        -0.362999        -0.039615        -1.252958
 H         2.636596         2.088406        -0.115993
 H         3.987059         0.349802        -1.833897
 H         4.812979        -2.670609         0.277322
 H         4.074913        -1.650749         1.447262
 H         2.470377        -3.088468        -0.654345
 H         1.929824        -2.228095         0.731216
 H         2.038904        -0.995113        -1.973312
