19
Iteration:   477
 C        -0.090869         0.142522        -0.022819
 C         1.463034         0.048834        -0.207785
 O         2.151971         0.420815         1.055138
 C         2.573955         0.906668        -0.243126
 C         3.572068        -0.098793        -0.938795
 O         4.628163        -0.731094        -0.236252
 C         3.972153        -1.828423         0.528865
 C         2.799273        -2.341484        -0.355671
 C         2.333386        -1.070938        -0.989695
 H        -0.426727        -0.854779         0.229755
 H        -0.283850         0.913704         0.694669
 H        -0.471520         0.469024        -1.047105
 H         2.676283         2.010501        -0.369135
 H         3.898656         0.144056        -1.964727
 H         4.770563        -2.650585         0.699532
 H         3.548671        -1.378955         1.400289
 H         3.040892        -3.135694        -1.095985
 H         2.188726        -2.780495         0.425967
 H         1.968860        -1.202268        -2.049351
