19
Iteration:  1186charge 0 multiplicity 1
 C        -0.051886         0.508120        -0.541606
 C         1.337158        -0.056545        -0.080223
 O         1.911752         0.260236         1.202528
 C         2.538877         0.776820         0.010005
 C         3.456887        -0.173300        -0.827791
 O         4.630328        -0.685285        -0.537899
 C         4.378365        -1.831685         0.259365
 C         2.936614        -2.334086         0.020446
 C         2.272733        -1.106519        -0.749059
 H        -0.952517         0.059465        -0.209973
 H        -0.078072         1.599942        -0.245832
 H        -0.106665         0.534319        -1.629298
 H         2.662905         1.858135        -0.052607
 H         3.600164         0.391923        -1.764807
 H         5.073384        -2.530986        -0.201207
 H         4.476921        -1.531240         1.310027
 H         2.919827        -3.224941        -0.758669
 H         2.390519        -2.734629         0.855839
 H         1.774438        -1.356665        -1.746087
