19
Iteration:  3620
 C        -0.100421         0.163029        -0.275016
 C         1.373721         0.118946        -0.435596
 O         1.970449         0.482774         0.930374
 C         2.611240         0.955753        -0.261169
 C         3.516264        -0.146823        -0.847419
 O         4.557178        -0.658341        -0.125264
 C         4.323746        -2.146233        -0.011187
 C         2.806721        -2.104590         0.371674
 C         2.361737        -1.204915        -0.748818
 H        -0.799775         0.267740        -1.156585
 H        -0.241604        -0.762869         0.279934
 H        -0.370541         0.967731         0.450229
 H         2.710134         2.006828        -0.455632
 H         3.756204         0.086129        -1.939191
 H         4.427890        -2.749462        -0.939987
 H         4.971728        -2.602129         0.751321
 H         2.415792        -3.099066         0.339803
 H         2.565520        -1.589490         1.323214
 H         2.265894        -1.660939        -1.766652
