19
Iteration:  1671
 C        -0.023664         0.376436        -0.356408
 C         1.414666        -0.020262        -0.098649
 O         2.060457         0.259004         1.082613
 C         2.547888         0.918447        -0.198011
 C         3.401767        -0.092735        -0.955260
 O         4.537715        -0.596606        -0.088622
 C         4.380193        -2.009216         0.081855
 C         2.785428        -2.252813         0.049720
 C         2.267896        -1.178069        -0.901114
 H        -0.849741        -0.333788        -0.417406
 H        -0.297310         1.252680         0.305143
 H         0.090479         0.645772        -1.366723
 H         2.617965         2.014043        -0.143215
 H         3.740027         0.360228        -1.903109
 H         4.892420        -2.611445        -0.728109
 H         4.774917        -2.305535         1.106143
 H         2.639410        -3.291614        -0.245275
 H         2.536837        -1.946890         1.088349
 H         1.852477        -1.617453        -1.777798
