19
Iteration:   596charge 0 multiplicity 1
 C        -0.054029         0.068877        -0.413223
 C         1.515323         0.080500        -0.191259
 O         2.111574         0.161105         1.095159
 C         2.747605         0.900694         0.068613
 C         3.488418        -0.047346        -0.914149
 O         4.618030        -0.806393        -0.509378
 C         4.166214        -1.796192         0.361208
 C         2.583815        -2.064027         0.033098
 C         2.279718        -0.981218        -0.888590
 H        -0.482990        -0.384238         0.434562
 H        -0.531467         0.990937        -0.537354
 H        -0.295619        -0.559314        -1.267199
 H         2.820346         1.947783         0.301579
 H         3.624706         0.532600        -1.846528
 H         4.782046        -2.631637         0.203202
 H         4.241726        -1.463161         1.413339
 H         2.484828        -3.045039        -0.476708
 H         1.945590        -2.025413         0.916578
 H         1.883428        -1.311292        -1.910197
