19
Iteration:  4782
 C        -0.073049         0.140338        -0.436545
 C         1.451245         0.047142        -0.151595
 O         2.174174         0.597941         1.012996
 C         2.504773         0.940911        -0.386044
 C         3.443521        -0.208946        -0.992293
 O         4.611670        -0.644236        -0.321029
 C         4.313243        -1.949398         0.327589
 C         2.721103        -2.273667         0.242353
 C         2.243743        -1.195446        -0.627654
 H        -0.136199         0.154006        -1.498947
 H        -0.589538        -0.772604        -0.018779
 H        -0.605884         0.949919         0.009722
 H         2.465637         1.974161        -0.722646
 H         3.865202        -0.021006        -2.005211
 H         4.777365        -2.916750        -0.089481
 H         4.674477        -1.849917         1.345969
 H         2.501785        -3.285924        -0.247171
 H         2.374641        -2.282151         1.274955
 H         1.711935        -1.537726        -1.550733
