19
Iteration:  3389
 C        -0.007356         0.301441         0.051977
 C         1.402426         0.033439        -0.164751
 O         2.273222         0.560750         0.790323
 C         2.514715         0.936636        -0.567756
 C         3.421483        -0.246408        -0.960530
 O         4.422543        -0.639373        -0.047475
 C         4.141347        -1.906466         0.534505
 C         2.903346        -2.390628        -0.173969
 C         2.268429        -1.219256        -0.896458
 H        -0.581835         0.474633        -0.936949
 H        -0.322391        -0.520733         0.715982
 H        -0.171437         1.178488         0.703521
 H         2.689516         1.943933        -0.953752
 H         3.967251        -0.135402        -1.944535
 H         4.899949        -2.689346         0.452713
 H         4.048405        -1.785946         1.573149
 H         3.302513        -3.138555        -0.839192
 H         2.216600        -2.760061         0.522788
 H         1.946306        -1.735097        -1.783002
