19
Iteration:  3198charge 0 multiplicity 1
 C        -0.068399         0.391948        -0.215728
 C         1.403000         0.009331        -0.195283
 O         2.145415         0.457539         0.963881
 C         2.590848         0.847976        -0.359018
 C         3.427634        -0.252968        -1.064449
 O         4.632712        -0.798987        -0.452677
 C         4.188671        -1.724712         0.639703
 C         2.860530        -2.303236         0.080114
 C         2.184438        -1.240712        -0.777355
 H        -0.340807         0.860537        -1.130254
 H        -0.544146        -0.553687         0.105518
 H        -0.266399         1.145297         0.556921
 H         2.730535         1.891184        -0.634670
 H         3.682008         0.079859        -2.075800
 H         4.982641        -2.433203         0.822616
 H         3.989439        -1.087580         1.500092
 H         3.305048        -3.033236        -0.607220
 H         2.223686        -2.798902         0.865670
 H         1.612670        -1.674495        -1.610866
