19
Iteration:  4358charge 0 multiplicity 1
 C        -0.053199         0.076994        -0.279426
 C         1.467454         0.092324        -0.211349
 O         2.185313         0.552423         1.024707
 C         2.644095         0.991131        -0.328385
 C         3.402256        -0.235122        -0.997451
 O         4.538290        -0.789986        -0.473659
 C         4.183382        -1.768935         0.615860
 C         2.801640        -2.326290         0.083145
 C         2.249698        -1.144444        -0.819552
 H        -0.302834         0.298351        -1.329492
 H        -0.398389        -0.915787        -0.049795
 H        -0.577906         0.605586         0.487137
 H         2.613812         2.076554        -0.337439
 H         3.681683         0.117798        -1.993127
 H         4.889190        -2.580518         0.805105
 H         3.975210        -1.137255         1.444991
 H         3.063247        -3.281086        -0.434824
 H         2.170280        -2.429222         0.914079
 H         1.831750        -1.507516        -1.809157
