19
Iteration:  1176charge 0 multiplicity 1
 C         0.057008         0.554370        -0.568916
 C         1.346024        -0.076905        -0.071449
 O         1.883542         0.240853         1.188879
 C         2.563037         0.832880         0.049242
 C         3.348649        -0.117739        -0.940739
 O         4.649193        -0.644150        -0.547735
 C         4.393339        -1.854916         0.315343
 C         2.944577        -2.381603         0.000359
 C         2.191184        -1.199743        -0.713007
 H        -0.871252         0.140236        -0.206451
 H         0.132907         1.513767        -0.000235
 H         0.052269         0.755022        -1.643598
 H         2.410668         1.922358         0.063279
 H         3.405623         0.379332        -1.920707
 H         5.171672        -2.616775         0.242624
 H         4.625905        -1.538554         1.366414
 H         3.141300        -3.059112        -0.891832
 H         2.437473        -2.827885         0.802477
 H         1.699748        -1.633050        -1.639854
