19
Iteration:  3711
 C        -0.068670         0.230950        -0.114482
 C         1.392996        -0.044736        -0.161099
 O         2.131735         0.569029         0.943304
 C         2.585779         0.888665        -0.398312
 C         3.497658        -0.225007        -0.960410
 O         4.615904        -0.689463        -0.240355
 C         4.189569        -1.846363         0.506907
 C         2.822804        -2.333299        -0.153851
 C         2.216528        -1.181712        -0.799442
 H        -0.471138         0.022748        -1.109123
 H        -0.644277        -0.235611         0.790934
 H        -0.230898         1.325301        -0.057273
 H         2.431615         2.004480        -0.447207
 H         3.804007         0.081435        -2.002385
 H         5.017279        -2.567525         0.420897
 H         4.194025        -1.474667         1.550044
 H         3.230378        -3.139506        -0.828764
 H         2.086977        -2.873805         0.488091
 H         1.845562        -1.405797        -1.808586
