19
Iteration:  2397
 C        -0.041748         0.284439        -0.579318
 C         1.407444         0.090768        -0.140342
 O         1.917517         0.400940         1.163924
 C         2.618178         0.913497        -0.096077
 C         3.478898        -0.062050        -0.824821
 O         4.670566        -0.747715        -0.390706
 C         4.332612        -2.102994        -0.035681
 C         2.751519        -2.191913         0.273470
 C         2.270742        -1.106867        -0.643961
 H        -0.172243         0.547308        -1.685793
 H        -0.476409        -0.783734        -0.637700
 H        -0.676060         0.988818         0.019988
 H         2.609783         2.003421        -0.109437
 H         3.652778         0.351972        -1.846965
 H         4.575100        -2.673947        -0.943923
 H         4.949473        -2.356189         0.824460
 H         2.538121        -3.330278         0.169083
 H         2.658650        -1.911807         1.317713
 H         1.980449        -1.514094        -1.630868
