19
Iteration:  3465charge 0 multiplicity 1
 C        -0.050107         0.079422        -0.193339
 C         1.483035         0.022655        -0.234711
 O         2.328023         0.370600         0.961395
 C         2.658284         0.918149        -0.306477
 C         3.418787        -0.188990        -1.024441
 O         4.573001        -0.828655        -0.467365
 C         4.049682        -1.614818         0.605328
 C         2.705859        -2.164495         0.123986
 C         2.214119        -1.083471        -0.855430
 H        -0.378493        -0.153813        -1.267875
 H        -0.384524        -0.831538         0.336678
 H        -0.481919         1.006329         0.242098
 H         2.703493         2.033773        -0.303799
 H         3.655671         0.068443        -2.096620
 H         4.697762        -2.503800         0.712054
 H         3.892094        -1.136770         1.552045
 H         2.800562        -3.085770        -0.476583
 H         2.147443        -2.321000         1.021547
 H         2.047587        -1.698812        -1.737504
