19
Iteration:   497
 C         0.009673         0.241682        -0.206489
 C         1.519239        -0.071011        -0.030791
 O         2.352028         0.342906         0.980221
 C         2.541220         0.970714        -0.227132
 C         3.415830        -0.099067        -0.994696
 O         4.433569        -0.647637        -0.154942
 C         4.013966        -1.825679         0.529979
 C         2.871124        -2.419439        -0.333111
 C         2.230996        -1.084180        -0.899866
 H        -0.574297        -0.626169        -0.207795
 H        -0.315457         0.839939         0.593988
 H        -0.170926         0.731003        -1.142744
 H         2.703339         2.063771        -0.414660
 H         3.818684         0.252459        -1.967597
 H         4.874881        -2.456285         0.587508
 H         3.687158        -1.516802         1.529194
 H         3.314329        -2.790758        -1.230924
 H         2.107342        -3.103365         0.114182
 H         1.628450        -1.406770        -1.836134
