19
Iteration:  1602charge 0 multiplicity 1
 C        -0.006034         0.176793        -0.263000
 C         1.439710         0.022009        -0.228602
 O         2.141019         0.439161         1.033458
 C         2.587710         0.969253        -0.142212
 C         3.499398        -0.055296        -0.884614
 O         4.512970        -0.662146        -0.081255
 C         4.260136        -2.045859         0.170663
 C         2.752962        -2.269520        -0.066378
 C         2.258142        -1.119894        -0.915603
 H        -0.570838        -0.146103         0.648855
 H        -0.424892         1.166501        -0.483828
 H        -0.486705        -0.533437        -1.006636
 H         2.612203         2.053289        -0.352815
 H         3.963289         0.333417        -1.796161
 H         4.831800        -2.706191        -0.563959
 H         4.520897        -2.271482         1.163413
 H         2.503794        -3.132207        -0.659243
 H         2.237402        -2.171660         0.847736
 H         1.711825        -1.479274        -1.789477
