19
Iteration:  3626
 C        -0.121210         0.184158        -0.261573
 C         1.423381         0.067357        -0.428361
 O         2.012272         0.512915         0.908760
 C         2.610476         0.935819        -0.283770
 C         3.473401        -0.156476        -0.852097
 O         4.520743        -0.681561        -0.096686
 C         4.356719        -2.127857         0.001107
 C         2.786291        -2.160632         0.401654
 C         2.365308        -1.137468        -0.807825
 H        -0.790501         0.169090        -1.093304
 H        -0.410115        -0.730548         0.314443
 H        -0.267259         1.045550         0.367517
 H         2.574567         2.063873        -0.240195
 H         3.733982         0.182477        -1.840742
 H         4.447189        -2.684323        -0.956818
 H         5.131078        -2.366722         0.746974
 H         2.530276        -3.255543         0.195430
 H         2.461939        -1.640470         1.293546
 H         2.188385        -1.668126        -1.732910
