19
Iteration:   773
 C         0.035565         0.005997         0.010346
 C         1.441977         0.096243        -0.372536
 O         2.040051         0.381866         0.945905
 C         2.638310         0.993927        -0.149595
 C         3.542709        -0.057918        -0.895666
 O         4.634171        -0.813987        -0.349221
 C         4.074012        -1.878871         0.490140
 C         2.671494        -2.224824        -0.096861
 C         2.305478        -0.987420        -1.046970
 H         0.010557        -0.900258         0.550176
 H        -0.390057         0.874056         0.528462
 H        -0.494869        -0.269265        -0.882373
 H         2.818486         2.106009        -0.015722
 H         4.083861         0.392638        -1.764672
 H         4.835080        -2.710909         0.625781
 H         3.878810        -1.409691         1.471142
 H         2.737561        -3.210056        -0.686967
 H         1.979102        -2.282348         0.718834
 H         2.101922        -1.370744        -2.094178
