19
Iteration:  2050
 C        -0.176789         0.085530        -0.320665
 C         1.397067         0.137725        -0.375264
 O         1.967323         0.294432         1.000790
 C         2.667069         0.938565        -0.031208
 C         3.524897        -0.065184        -0.775933
 O         4.676691        -0.668477        -0.063168
 C         4.272711        -2.085524        -0.133924
 C         2.733449        -2.130612         0.125665
 C         2.305645        -1.032579        -0.850081
 H        -0.387847        -0.844639         0.154135
 H        -0.488700         0.861488         0.447960
 H        -0.710798         0.394228        -1.191009
 H         2.944512         2.027536         0.053235
 H         3.878285         0.320023        -1.789307
 H         4.544540        -2.500098        -1.059076
 H         4.660266        -2.582110         0.723746
 H         2.367705        -3.225337         0.179669
 H         2.789410        -1.475695         0.991195
 H         2.269739        -1.495611        -1.893880
