19
Iteration:  3640charge 0 multiplicity 1
 C        -0.071826         0.195324        -0.243598
 C         1.383906        -0.029998        -0.262985
 O         2.083123         0.500771         0.894802
 C         2.558605         1.013716        -0.327488
 C         3.503039        -0.135828        -0.916693
 O         4.521297        -0.646786        -0.053724
 C         4.320271        -2.029193         0.104168
 C         2.820083        -2.274798         0.260802
 C         2.264551        -1.171508        -0.823186
 H        -0.426259         0.151162        -1.287020
 H        -0.596819        -0.410767         0.429316
 H        -0.262360         1.223065         0.052045
 H         2.761995         2.049940        -0.571662
 H         3.936467         0.048779        -1.919404
 H         4.672078        -2.533630        -0.833836
 H         4.957993        -2.452756         0.892139
 H         2.363442        -3.216721         0.055807
 H         2.581372        -2.073841         1.292536
 H         1.857323        -1.586080        -1.777127
