19
Iteration:  1310
 C        -0.128705         0.298452        -0.095135
 C         1.421943         0.002842        -0.109353
 O         2.164852         0.638862         1.000600
 C         2.509939         0.984518        -0.407526
 C         3.476101        -0.125839        -0.789841
 O         4.266097        -0.686649         0.189950
 C         4.371442        -2.128239         0.039722
 C         2.997488        -2.431036        -0.318671
 C         2.346441        -1.132212        -0.850699
 H        -0.682519        -0.652822         0.022217
 H        -0.450862         1.088338         0.525070
 H        -0.480169         0.607124        -1.083335
 H         2.498164         1.962740        -0.867356
 H         3.988489        -0.016938        -1.746094
 H         5.094235        -2.335891        -0.729118
 H         4.805471        -2.669993         0.944283
 H         2.859144        -3.085547        -1.102450
 H         2.444636        -2.878703         0.497077
 H         1.948110        -1.195970        -1.831621
