19
Iteration:  3610charge 0 multiplicity 1
 C        -0.090999         0.136669        -0.289195
 C         1.414179         0.084974        -0.335348
 O         1.916598         0.459031         0.922815
 C         2.591676         0.987989        -0.266937
 C         3.513821        -0.156680        -0.867081
 O         4.704132        -0.693686        -0.153043
 C         4.236819        -2.113176         0.014741
 C         2.828505        -2.068849         0.322595
 C         2.269282        -1.158829        -0.732845
 H        -0.507271         0.226848        -1.354343
 H        -0.442307        -0.888498         0.059345
 H        -0.485452         0.911170         0.427590
 H         2.845876         1.998481        -0.451599
 H         3.848630         0.026370        -1.935298
 H         4.538253        -2.480805        -0.975696
 H         4.813488        -2.612047         0.807252
 H         2.180686        -2.888193         0.507828
 H         2.978720        -1.605823         1.351119
 H         1.998564        -1.801818        -1.625851
