19
Iteration:  3691
 C        -0.012463         0.289794        -0.267182
 C         1.465526        -0.008027        -0.130676
 O         2.186933         0.570067         1.001537
 C         2.592498         0.998803        -0.410121
 C         3.344364        -0.182009        -0.964740
 O         4.449470        -0.596191        -0.150190
 C         4.243364        -1.958627         0.390838
 C         2.930780        -2.510764        -0.067617
 C         2.256731        -1.203132        -0.777209
 H        -0.414083        -0.200491        -1.172210
 H        -0.493978        -0.265448         0.634727
 H        -0.402531         1.313221        -0.312986
 H         2.472978         2.117707        -0.594779
 H         3.548257         0.024282        -2.032308
 H         5.105616        -2.572054         0.071148
 H         4.219632        -1.811079         1.499657
 H         2.768791        -3.207672        -0.973707
 H         2.427719        -2.894817         0.840140
 H         1.602636        -1.519347        -1.578652
