19
Iteration:  3826charge 0 multiplicity 1
 C        -0.094982         0.272720        -0.290315
 C         1.409756         0.014956        -0.146264
 O         1.960673         0.577025         1.001953
 C         2.593152         0.918268        -0.281838
 C         3.434082        -0.241349        -0.963141
 O         4.638876        -0.677628        -0.272506
 C         4.398456        -1.892025         0.293707
 C         2.847960        -2.351335         0.105372
 C         2.260545        -1.248242        -0.818092
 H        -0.295501         0.441506        -1.383356
 H        -0.772815        -0.375657         0.210068
 H        -0.275303         1.311558         0.124782
 H         2.371333         2.003854        -0.377964
 H         3.671843         0.070006        -1.987144
 H         4.943889        -2.814323        -0.063779
 H         4.600502        -1.748072         1.386017
 H         2.745795        -3.422205        -0.270522
 H         2.222807        -2.356007         1.017162
 H         1.871827        -1.503644        -1.842344
