19
Iteration:  1267
 C        -0.008264        -0.013666        -0.161709
 C         1.455106         0.095317        -0.218212
 O         2.198170         0.419892         0.989818
 C         2.596590         1.055351        -0.261377
 C         3.548924        -0.060667        -0.892058
 O         4.390393        -0.681583         0.071674
 C         4.178814        -2.052664         0.093390
 C         2.687141        -2.232653        -0.122971
 C         2.367976        -1.002105        -0.942054
 H        -0.117140        -1.083590         0.188278
 H        -0.374276         0.688754         0.571416
 H        -0.562060         0.043338        -1.107353
 H         2.567510         2.144762        -0.269537
 H         4.066144         0.289368        -1.782893
 H         4.772239        -2.656391        -0.539507
 H         4.502717        -2.384794         1.115986
 H         2.538496        -3.062863        -0.714888
 H         2.121454        -2.294307         0.805197
 H         2.013942        -1.284804        -1.905352
