19
Iteration:  2443
 C         0.033317         0.615791        -0.441312
 C         1.367173        -0.084863        -0.205056
 O         2.015478         0.235565         1.062660
 C         2.521552         0.807784        -0.199110
 C         3.411792        -0.228697        -0.942900
 O         4.585575        -0.555997        -0.303204
 C         4.300090        -1.943026         0.134809
 C         2.887294        -2.268936         0.268778
 C         2.295636        -1.226548        -0.750904
 H        -0.024519         1.604454        -1.096012
 H        -0.867874         0.010326        -0.787835
 H        -0.218120         0.951663         0.625946
 H         2.544200         1.864888        -0.233632
 H         3.574514        -0.032038        -2.014616
 H         4.910787        -2.593143        -0.452238
 H         4.697671        -1.909948         1.156737
 H         2.598870        -3.377994        -0.023054
 H         2.396590        -2.055793         1.216015
 H         1.831060        -1.731470        -1.636190
