19
Iteration:  3035charge 0 multiplicity 1
 C        -0.043891         0.396187        -0.277641
 C         1.424087         0.050904        -0.081047
 O         2.208766         0.470025         1.044604
 C         2.566975         0.860332        -0.283629
 C         3.444225        -0.246377        -1.051136
 O         4.553555        -0.806808        -0.463031
 C         4.209017        -1.752767         0.538886
 C         2.818721        -2.362041         0.017634
 C         2.211373        -1.209137        -0.773470
 H        -0.511957        -0.526783        -0.688039
 H        -0.574639         0.678482         0.722297
 H        -0.317475         1.171163        -1.032057
 H         2.630456         1.939821        -0.547818
 H         3.505716         0.055768        -2.140222
 H         5.078750        -2.422179         0.529438
 H         4.007185        -1.300486         1.591090
 H         3.116331        -3.084472        -0.710207
 H         2.340036        -2.790189         0.911497
 H         1.829435        -1.512287        -1.741851
