19
Iteration:  4931
 C        -0.034725         0.108936        -0.253875
 C         1.454231         0.005242        -0.264933
 O         2.016914         0.743702         0.829312
 C         2.601083         0.924395        -0.413187
 C         3.511740        -0.246247        -0.915416
 O         4.451273        -0.655018        -0.018760
 C         4.386799        -2.057439         0.094050
 C         2.784583        -2.274039         0.281721
 C         2.277909        -1.147692        -0.696101
 H        -0.532705         0.427681        -1.239224
 H        -0.442503        -0.865744        -0.040411
 H        -0.376537         0.844842         0.430723
 H         2.643964         1.974252        -0.727965
 H         3.865351        -0.264435        -2.005833
 H         4.778999        -2.543728        -0.842174
 H         5.068351        -2.249763         0.985363
 H         2.302501        -3.296349         0.137785
 H         2.465989        -1.914158         1.238534
 H         1.815450        -1.605578        -1.610878
