19
Iteration:  1612charge 0 multiplicity 1
 C        -0.179274         0.260853        -0.220375
 C         1.418199         0.069449        -0.257409
 O         2.083659         0.339151         1.041929
 C         2.648024         0.920738        -0.213998
 C         3.496236        -0.129599        -0.913744
 O         4.508233        -0.661969        -0.046001
 C         4.336332        -2.015166         0.151595
 C         2.809474        -2.249913        -0.060172
 C         2.272369        -1.082147        -0.887385
 H        -0.527549        -0.012449         0.800827
 H        -0.247080         1.326066        -0.404872
 H        -0.654507        -0.220888        -1.148067
 H         2.843562         1.971583        -0.418458
 H         3.837205         0.194742        -1.905912
 H         5.117580        -2.574082        -0.423215
 H         4.486390        -2.204895         1.168789
 H         2.662874        -3.243490        -0.454200
 H         2.384979        -2.429397         0.876859
 H         1.869770        -1.262256        -1.923019
