19
Iteration:  3352charge 0 multiplicity 1
 C         0.027274         0.264867        -0.173329
 C         1.469037         0.016904        -0.100781
 O         2.307464         0.444014         0.927528
 C         2.559946         0.925346        -0.454176
 C         3.381419        -0.199460        -1.011365
 O         4.473173        -0.586570        -0.128631
 C         4.141627        -1.864494         0.444377
 C         2.804621        -2.395973        -0.022685
 C         2.244374        -1.201922        -0.883646
 H        -0.542898        -0.241162        -0.925858
 H        -0.513981        -0.137378         0.758428
 H        -0.106575         1.377967        -0.215837
 H         2.457421         2.003008        -0.595537
 H         3.805367         0.106494        -1.986092
 H         4.968983        -2.463207         0.020250
 H         4.259557        -1.766022         1.584531
 H         2.694538        -3.278884        -0.702765
 H         2.081046        -2.662319         0.799316
 H         1.735967        -1.526771        -1.821979
