19
Iteration:  3331
 C        -0.074092         0.185617        -0.230692
 C         1.364648         0.018230        -0.186445
 O         2.223063         0.476312         0.984400
 C         2.618299         0.980995        -0.258616
 C         3.504875        -0.192118        -1.008937
 O         4.574336        -0.725987        -0.324237
 C         4.238580        -1.916968         0.435885
 C         2.720136        -2.235872         0.051008
 C         2.235157        -1.124087        -0.832643
 H        -0.549518        -0.446856        -0.975627
 H        -0.639868        -0.278900         0.660419
 H        -0.489379         1.201429        -0.438235
 H         2.701711         2.075006        -0.360521
 H         3.827362        -0.061848        -2.078959
 H         4.929659        -2.703258         0.117753
 H         4.480026        -1.510319         1.444805
 H         2.588471        -3.223995        -0.466051
 H         2.072049        -2.365597         0.939524
 H         1.899444        -1.605640        -1.766106
