19
Iteration:  3709
 C        -0.053825         0.227418        -0.127583
 C         1.393986        -0.018121        -0.159011
 O         2.131869         0.567569         0.953553
 C         2.567832         0.887399        -0.396504
 C         3.492506        -0.231513        -0.962551
 O         4.596051        -0.679979        -0.233271
 C         4.208261        -1.850469         0.488084
 C         2.821262        -2.354191        -0.161280
 C         2.207734        -1.178144        -0.779336
 H        -0.444184         0.001469        -1.123651
 H        -0.589521        -0.185447         0.756782
 H        -0.204661         1.325653        -0.063362
 H         2.457280         1.995926        -0.516152
 H         3.837109         0.044720        -2.002347
 H         5.065677        -2.533851         0.425546
 H         4.223117        -1.528569         1.546345
 H         3.224015        -3.153042        -0.740010
 H         2.096301        -2.902200         0.474619
 H         1.898377        -1.382083        -1.827858
