19
Iteration:  4138charge 0 multiplicity 1
 C        -0.045574         0.379675        -0.139191
 C         1.398785        -0.028447        -0.299669
 O         2.113537         0.272203         0.842573
 C         2.583622         0.857490        -0.321752
 C         3.437135        -0.208597        -1.006401
 O         4.619103        -0.708820        -0.401738
 C         4.137046        -1.598550         0.634610
 C         2.938433        -2.372810         0.121174
 C         2.208498        -1.229061        -0.876954
 H        -0.421997         0.769307        -1.123004
 H        -0.739112        -0.399425         0.230289
 H         0.066538         1.253581         0.516685
 H         2.669531         1.946981        -0.183538
 H         3.729760         0.281522        -1.943455
 H         5.007096        -2.240519         0.925143
 H         3.843668        -0.877425         1.501994
 H         3.249682        -3.373392        -0.389723
 H         2.260579        -2.509649         0.976471
 H         1.582301        -1.803382        -1.647527
