19
Iteration:   930charge 0 multiplicity 1
 C        -0.049045         0.095127        -0.293158
 C         1.483852        -0.006612        -0.139602
 O         2.253140         0.264274         1.052285
 C         2.675051         0.947148        -0.126700
 C         3.525956        -0.047087        -0.934433
 O         4.616162        -0.679774        -0.338399
 C         4.124647        -1.874947         0.322617
 C         2.566101        -2.153079         0.006083
 C         2.220064        -1.056083        -0.937636
 H        -0.565663        -0.747250         0.202114
 H        -0.448831         1.002424         0.096526
 H        -0.337963         0.001419        -1.338758
 H         2.695231         2.012242         0.103288
 H         3.868594         0.405674        -1.878184
 H         4.763379        -2.646209        -0.304357
 H         4.362072        -1.883793         1.379356
 H         2.454031        -3.180311        -0.330692
 H         1.899470        -2.199104         0.998683
 H         1.714903        -1.301060        -1.841129
