19
Iteration:  4890
 C        -0.031332         0.168087        -0.503748
 C         1.367309         0.016807        -0.101018
 O         2.076300         0.621945         0.967497
 C         2.550861         0.979118        -0.403420
 C         3.421515        -0.264072        -0.930968
 O         4.552715        -0.638243        -0.190316
 C         4.428729        -2.037279         0.066696
 C         2.780411        -2.228895         0.381838
 C         2.236121        -1.175809        -0.533960
 H        -0.154153        -0.164673        -1.582806
 H        -0.850919        -0.702264        -0.118549
 H        -0.347655         1.254776        -0.490518
 H         2.728054         1.969495        -0.712428
 H         3.748784        -0.043594        -1.950796
 H         4.680260        -2.607626        -0.825403
 H         4.945837        -2.265724         0.982200
 H         2.417871        -3.215346        -0.106349
 H         2.746801        -2.270698         1.471236
 H         1.838022        -1.506356        -1.516897
