19
Iteration:  2331
 C        -0.109356         0.167916        -0.287204
 C         1.431177         0.000555        -0.265563
 O         2.110540         0.403973         0.997845
 C         2.622780         1.005355        -0.205005
 C         3.516784        -0.040602        -0.848685
 O         4.512132        -0.690578         0.038123
 C         4.288849        -2.021812        -0.080762
 C         2.760197        -2.249598         0.044853
 C         2.294598        -1.105855        -0.769121
 H        -0.573900        -0.671220        -0.904396
 H        -0.614389         0.149773         0.766689
 H        -0.299722         1.198368        -0.653830
 H         2.836226         2.131239        -0.163636
 H         3.839255        -0.008875        -1.907447
 H         4.567623        -2.412558        -1.056207
 H         4.788157        -2.622413         0.742382
 H         2.441419        -3.242836        -0.460558
 H         2.393130        -1.983411         1.047184
 H         1.863147        -1.350423        -1.757863
