19
Iteration:   723charge 0 multiplicity 1
 C         0.075454         0.031765        -0.218292
 C         1.569220         0.004262        -0.069110
 O         2.399426         0.385883         1.036169
 C         2.651048         1.001271        -0.276956
 C         3.385660        -0.049039        -1.006439
 O         4.419341        -0.638516        -0.202625
 C         3.954326        -1.819115         0.532577
 C         2.701950        -2.347242        -0.217769
 C         2.231193        -1.082004        -0.979361
 H        -0.317509        -1.077355         0.000250
 H        -0.374202         0.738214         0.548562
 H        -0.261532         0.346537        -1.256859
 H         2.799958         2.047574        -0.493904
 H         3.680341         0.257771        -2.019725
 H         4.772988        -2.583430         0.427301
 H         3.800395        -1.555809         1.626469
 H         3.050328        -3.225222        -0.724753
 H         1.989448        -2.832030         0.585296
 H         1.802340        -1.276483        -1.926028
