19
Iteration:   138charge 0 multiplicity 1
 C        -0.103851         0.172860        -0.092555
 C         1.367714         0.014484        -0.343484
 O         1.992250         0.223677         0.971540
 C         2.641645         0.949036        -0.003066
 C         3.543567        -0.036090        -0.833404
 O         4.740724        -0.793682        -0.355795
 C         4.163784        -1.782425         0.448437
 C         2.742657        -2.222882        -0.158244
 C         2.330973        -1.056059        -1.075819
 H        -0.156889         1.091985         0.513438
 H        -0.703182         0.308430        -1.070804
 H        -0.594819        -0.701653         0.503799
 H         2.859363         1.971605         0.240182
 H         3.884840         0.426107        -1.772545
 H         4.743116        -2.741565         0.543547
 H         4.058178        -1.359891         1.446932
 H         2.856105        -3.144427        -0.911462
 H         1.936584        -2.387035         0.727346
 H         2.019292        -1.149222        -2.108330
