19
Iteration:  3230
 C         0.032128         0.594079        -0.430985
 C         1.392903        -0.032140        -0.145294
 O         2.138375         0.368921         1.032775
 C         2.524806         0.785239        -0.257884
 C         3.297239        -0.257004        -1.036964
 O         4.530605        -0.694498        -0.504020
 C         4.317030        -1.763190         0.469846
 C         2.898163        -2.323853         0.203158
 C         2.243202        -1.321017        -0.687648
 H        -0.079657         1.092985        -1.378064
 H        -0.700199        -0.236227        -0.574860
 H        -0.257078         1.100604         0.477122
 H         2.479720         1.841482        -0.546740
 H         3.519907         0.156290        -2.011774
 H         5.260577        -2.295999         0.526283
 H         4.209088        -1.368623         1.499770
 H         3.131849        -3.280057        -0.285523
 H         2.480257        -2.559138         1.224835
 H         1.647726        -1.765093        -1.492050
