19
Iteration:  3488
 C        -0.102500         0.300841        -0.200787
 C         1.489330        -0.006646        -0.272293
 O         2.053653         0.308829         0.988295
 C         2.663195         0.859202        -0.297726
 C         3.485832        -0.231318        -1.095271
 O         4.628867        -0.683797        -0.458242
 C         4.247369        -1.726056         0.535179
 C         2.751230        -2.202545         0.211112
 C         2.243408        -1.212248        -0.871930
 H        -0.669106        -0.000266        -1.176917
 H        -0.543154        -0.365596         0.556989
 H        -0.251720         1.369914         0.110922
 H         2.704265         1.950842        -0.038376
 H         3.786547         0.140053        -2.117974
 H         4.965034        -2.561279         0.390101
 H         4.240726        -1.362257         1.544645
 H         2.640200        -3.253740        -0.042188
 H         2.167806        -1.918109         1.094179
 H         1.574027        -1.710440        -1.640523
