19
Iteration:   504charge 0 multiplicity 1
 C         0.066067         0.268711        -0.234101
 C         1.482790        -0.075401        -0.073187
 O         2.406366         0.343118         1.028560
 C         2.536436         0.909017        -0.232300
 C         3.367823        -0.090699        -1.004957
 O         4.341185        -0.610247        -0.144747
 C         4.039907        -1.835185         0.529488
 C         2.873397        -2.350879        -0.333931
 C         2.233772        -1.144942        -0.884161
 H        -0.515158        -0.716741        -0.347182
 H        -0.311738         1.005802         0.564300
 H         0.111387         0.841732        -1.170773
 H         2.716728         1.989692        -0.315330
 H         3.772676         0.168351        -1.994280
 H         4.921976        -2.481833         0.455533
 H         3.737366        -1.597054         1.620574
 H         3.294405        -2.771195        -1.279468
 H         2.359672        -3.242383         0.121843
 H         1.612190        -1.420149        -1.712766
