19
Iteration:  1875charge 0 multiplicity 1
 C        -0.036434        -0.029907        -0.221980
 C         1.484460         0.019250        -0.121754
 O         2.242834         0.318410         0.995318
 C         2.555178         1.037722        -0.178657
 C         3.579017        -0.027506        -0.884106
 O         4.596394        -0.749576        -0.299277
 C         4.071614        -1.894563         0.366309
 C         2.616956        -2.174274        -0.101902
 C         2.316093        -0.993270        -0.926331
 H        -0.513269        -0.955866         0.010104
 H        -0.636453         0.606207         0.445798
 H        -0.374370         0.018086        -1.262262
 H         2.646585         2.091077        -0.116583
 H         4.025356         0.414591        -1.802135
 H         4.886437        -2.720785         0.284579
 H         4.002113        -1.727246         1.433375
 H         2.414275        -3.070774        -0.698691
 H         1.928600        -2.324672         0.710274
 H         2.023598        -1.010985        -2.044381
