19
Iteration:  4859
 C        -0.066586         0.325093        -0.479329
 C         1.412685        -0.026842        -0.310931
 O         1.964384         0.487341         1.013407
 C         2.528353         0.883969        -0.238554
 C         3.408817        -0.245776        -0.945930
 O         4.578029        -0.684297        -0.319779
 C         4.463238        -1.998527         0.150267
 C         2.856330        -2.109059         0.454981
 C         2.271349        -1.237885        -0.689880
 H        -0.639486        -0.092345        -1.281654
 H        -0.666760         0.118288         0.492507
 H        -0.194501         1.431818        -0.620204
 H         2.455637         1.878712        -0.595460
 H         3.725276         0.039933        -1.944402
 H         4.912912        -2.703401        -0.627707
 H         4.887083        -2.233009         1.102452
 H         2.445465        -3.142040         0.455296
 H         2.777777        -1.807332         1.523630
 H         1.987412        -1.760018        -1.613824
