19
Iteration:  4083
 C        -0.036843         0.028840        -0.391388
 C         1.448020         0.048502        -0.120021
 O         2.256207         0.511083         1.036388
 C         2.611267         1.010418        -0.332723
 C         3.402147        -0.158638        -0.974913
 O         4.590830        -0.722595        -0.407512
 C         4.143613        -1.769128         0.490765
 C         2.724142        -2.359918         0.069910
 C         2.326179        -1.137520        -0.700573
 H        -0.218168        -0.360819        -1.406666
 H        -0.685291        -0.526759         0.341348
 H        -0.469916         1.045928        -0.438556
 H         2.459700         2.100419        -0.376687
 H         3.378264         0.076919        -2.048691
 H         4.904693        -2.570790         0.438826
 H         4.032504        -1.268776         1.513468
 H         2.730317        -3.339356        -0.531022
 H         1.980992        -2.552351         0.885970
 H         1.788804        -1.495755        -1.656307
