19
Iteration:  1980charge 0 multiplicity 1
 C        -0.049998         0.365805        -0.350332
 C         1.446804         0.025376        -0.115539
 O         2.098755         0.323578         1.134962
 C         2.584307         0.966419        -0.134318
 C         3.436155        -0.081751        -0.937227
 O         4.500548        -0.601958        -0.162242
 C         4.284624        -1.947448         0.215362
 C         2.953893        -2.460869        -0.223079
 C         2.153400        -1.166824        -0.768831
 H        -0.667733        -0.335955         0.252701
 H        -0.330920         1.392573        -0.283163
 H        -0.160588         0.180409        -1.461474
 H         2.653875         2.028682         0.095642
 H         3.684551         0.051303        -1.996564
 H         5.072616        -2.403921        -0.263988
 H         4.421064        -1.984048         1.341744
 H         3.025558        -3.077911        -1.120416
 H         2.316974        -2.804074         0.588065
 H         1.546945        -1.331594        -1.658356
