19
Iteration:  1395
 C        -0.091317         0.153113        -0.405088
 C         1.419820         0.030829        -0.274841
 O         2.007703         0.209811         1.054650
 C         2.678236         0.871265         0.047880
 C         3.500005        -0.051371        -0.805670
 O         4.630251        -0.668456        -0.239672
 C         4.218801        -2.004892        -0.008453
 C         2.692693        -2.063935         0.198098
 C         2.363215        -0.973172        -0.918803
 H        -0.406011        -0.387647         0.479577
 H        -0.479123         1.108447        -0.372963
 H        -0.249947        -0.419928        -1.328034
 H         2.983892         1.900222         0.201633
 H         3.682646         0.484090        -1.761800
 H         4.253171        -2.508347        -0.974431
 H         4.816362        -2.441950         0.825375
 H         2.176040        -3.073327        -0.174613
 H         2.407658        -1.840790         1.235813
 H         2.094600        -1.355527        -1.885192
