19
Iteration:   978
 C        -0.027037         0.311856         0.017185
 C         1.400779         0.000194        -0.174724
 O         2.095040         0.644015         0.956145
 C         2.637428         0.920920        -0.328335
 C         3.466995        -0.206638        -0.847544
 O         4.483786        -0.582486         0.052042
 C         4.223739        -2.031181         0.180744
 C         2.870668        -2.498178        -0.390263
 C         2.262153        -1.179876        -0.833936
 H        -0.503875        -0.316054         0.810304
 H        -0.065009         1.437658         0.219815
 H        -0.645872         0.093447        -0.921712
 H         2.673967         1.933512        -0.764167
 H         3.908541        -0.179786        -1.855978
 H         5.018743        -2.600029        -0.232604
 H         4.101341        -2.085606         1.321513
 H         2.953068        -3.165162        -1.280155
 H         2.348049        -3.091927         0.280724
 H         1.794102        -1.134958        -1.896914
