19
Iteration:    92
 C        -0.023624         0.238519        -0.487242
 C         1.414982        -0.066526        -0.096428
 O         2.212026         0.148777         1.148056
 C         2.572174         0.895849         0.044055
 C         3.476889        -0.009061        -0.890599
 O         4.645944        -0.708813        -0.478954
 C         4.172416        -1.840129         0.415283
 C         2.734757        -2.191360        -0.085514
 C         2.195651        -1.025264        -0.910422
 H        -0.276171         1.343836        -0.225173
 H        -0.038286         0.088112        -1.626369
 H        -0.894359        -0.410786        -0.110050
 H         2.579404         1.997537         0.273203
 H         3.685291         0.568148        -1.791370
 H         4.870978        -2.630489         0.297076
 H         4.178147        -1.500706         1.500352
 H         2.786942        -3.199094        -0.658725
 H         2.014482        -2.252044         0.892011
 H         1.718963        -1.408761        -1.849070
