19
Iteration:  4646
 C        -0.175944         0.171801        -0.215948
 C         1.362793         0.006972        -0.158817
 O         2.107865         0.562467         0.936145
 C         2.650133         0.960039        -0.259522
 C         3.518242        -0.184085        -0.995857
 O         4.647559        -0.835504        -0.492378
 C         4.178873        -1.740551         0.622957
 C         2.821521        -2.314573        -0.002282
 C         2.321900        -1.197502        -0.790232
 H        -0.478853        -0.450168        -1.120048
 H        -0.557728        -0.290466         0.730980
 H        -0.445016         1.299613        -0.179209
 H         2.646631         2.021180        -0.428749
 H         3.767593         0.036855        -2.006959
 H         4.801033        -2.571743         0.952682
 H         4.041853        -1.041327         1.506718
 H         3.057960        -3.154395        -0.642940
 H         2.012952        -2.780820         0.660718
 H         1.806713        -1.454662        -1.710754
