19
Iteration:  4781charge 0 multiplicity 1
 C        -0.074318         0.145086        -0.434635
 C         1.452199         0.040112        -0.148931
 O         2.181164         0.608162         1.005922
 C         2.491165         0.931410        -0.386286
 C         3.442212        -0.207891        -0.995080
 O         4.610322        -0.644721        -0.322416
 C         4.315802        -1.952490         0.338927
 C         2.720497        -2.267395         0.235208
 C         2.246158        -1.196190        -0.622799
 H        -0.137902         0.159769        -1.533113
 H        -0.585464        -0.829088        -0.009427
 H        -0.614117         0.944053         0.037106
 H         2.505196         1.992712        -0.689431
 H         3.881666        -0.010414        -1.982179
 H         4.781648        -2.917026        -0.110694
 H         4.653014        -1.891774         1.369150
 H         2.510853        -3.287834        -0.285732
 H         2.370292        -2.284375         1.267232
 H         1.714124        -1.519733        -1.557150
