19
Iteration:   454
 C        -0.036768        -0.008315        -0.003730
 C         1.480647         0.053935        -0.333811
 O         2.011969         0.392753         0.920839
 C         2.723737         1.028518        -0.105897
 C         3.559129        -0.010357        -0.876886
 O         4.618900        -0.864965        -0.346988
 C         4.039731        -1.866094         0.567125
 C         2.706837        -2.237793        -0.216472
 C         2.316284        -0.995346        -1.031826
 H        -0.079976        -0.717759         0.785425
 H        -0.130411         0.983052         0.346768
 H        -0.721352        -0.172624        -0.841706
 H         2.690435         2.146010         0.018876
 H         3.988547         0.357672        -1.836435
 H         4.735404        -2.714658         0.458052
 H         3.919902        -1.475395         1.585117
 H         2.976914        -3.093624        -0.793972
 H         1.932030        -2.581432         0.515588
 H         1.983191        -1.082961        -2.135511
