19
Iteration:  1743charge 0 multiplicity 1
 C        -0.114320         0.111374        -0.398201
 C         1.378586         0.026926        -0.218190
 O         1.902293         0.450850         1.104152
 C         2.524955         1.047818        -0.050297
 C         3.559787        -0.032614        -0.752288
 O         4.729596        -0.782188        -0.188369
 C         4.304010        -2.211427        -0.152483
 C         2.765883        -2.124798         0.186978
 C         2.364364        -1.024397        -0.828332
 H        -0.696229        -0.752266        -0.002311
 H        -0.491853         1.043632         0.118085
 H        -0.385063         0.192655        -1.536694
 H         2.675031         2.174761        -0.140766
 H         3.808528         0.201166        -1.810935
 H         4.561665        -2.711263        -1.117876
 H         4.839837        -2.588508         0.670975
 H         2.146967        -2.929610        -0.246440
 H         2.712580        -1.803892         1.216160
 H         2.182511        -1.368936        -1.957547
