19
Iteration:  3017
 C        -0.065049         0.318314        -0.291128
 C         1.424512        -0.040472        -0.227166
 O         2.180334         0.328712         1.024736
 C         2.662038         0.965964        -0.198308
 C         3.408907        -0.170154        -0.970279
 O         4.637578        -0.880775        -0.626235
 C         4.149023        -1.693857         0.530072
 C         2.796920        -2.273461         0.189915
 C         2.231486        -1.152719        -0.833113
 H        -0.706762        -0.465051        -0.578937
 H        -0.382530         0.667391         0.682234
 H        -0.178836         1.272961        -0.791889
 H         2.683749         2.030365        -0.172588
 H         3.472512         0.278653        -1.979456
 H         4.933153        -2.433842         0.788555
 H         3.987982        -1.207677         1.506045
 H         2.837919        -3.275251        -0.334533
 H         2.139898        -2.246643         1.054186
 H         1.704481        -1.574842        -1.688999
