19
Iteration:  1970charge 0 multiplicity 1
 C         0.037828         0.405425        -0.291574
 C         1.406105         0.052300        -0.102574
 O         2.063610         0.305790         1.088396
 C         2.551474         0.958182        -0.154472
 C         3.392583        -0.146271        -0.901226
 O         4.501177        -0.536886        -0.205397
 C         4.305601        -1.952944         0.277640
 C         2.903393        -2.470500        -0.274038
 C         2.253406        -1.163682        -0.814294
 H        -0.648690        -0.191889         0.334568
 H        -0.150871         1.394929         0.073958
 H        -0.362476         0.146881        -1.307817
 H         2.568797         2.035646        -0.032062
 H         3.701832         0.197525        -1.923683
 H         5.119696        -2.620782         0.123501
 H         4.069881        -1.866246         1.380937
 H         2.926371        -3.218678        -1.135603
 H         2.487311        -3.111788         0.542491
 H         1.907387        -1.583829        -1.774565
