19
Iteration:  1171charge 0 multiplicity 1
 C         0.121780         0.590094        -0.543149
 C         1.346404        -0.076790        -0.093854
 O         1.881240         0.222298         1.195510
 C         2.561948         0.873637         0.053980
 C         3.276230        -0.084873        -0.956414
 O         4.652154        -0.653307        -0.549448
 C         4.402147        -1.843129         0.359743
 C         2.964082        -2.367710        -0.044624
 C         2.164498        -1.265324        -0.716697
 H        -0.786214        -0.027609        -0.283592
 H         0.135218         1.538922        -0.010656
 H         0.148200         0.789331        -1.624975
 H         2.436967         1.949886         0.043823
 H         3.295597         0.304120        -1.997347
 H         5.212387        -2.619768         0.260678
 H         4.468969        -1.530219         1.401117
 H         3.156778        -3.140442        -0.823759
 H         2.470423        -2.913698         0.866124
 H         1.737709        -1.704170        -1.596164
