19
Iteration:  2066
 C        -0.125169         0.179569        -0.338864
 C         1.400027         0.046394        -0.239840
 O         1.984260         0.318015         1.006203
 C         2.591437         0.990306        -0.087711
 C         3.583885        -0.036003        -0.791193
 O         4.609190        -0.712705        -0.051439
 C         4.331141        -2.116425        -0.109952
 C         2.802083        -2.112127         0.161028
 C         2.257543        -1.064738        -0.896130
 H        -0.602942        -0.833899        -0.177086
 H        -0.583252         0.819377         0.398824
 H        -0.466410         0.306069        -1.409371
 H         2.625875         2.096081        -0.076990
 H         3.957358         0.346380        -1.734745
 H         4.419192        -2.463006        -1.277815
 H         5.092096        -2.593498         0.566031
 H         2.371353        -3.068910        -0.069224
 H         2.651374        -1.937836         1.249407
 H         1.812107        -1.328644        -1.824490
