19
Iteration:  3877
 C         0.028398         0.232623        -0.481226
 C         1.412766        -0.035120        -0.145877
 O         2.068034         0.490350         1.031064
 C         2.569914         0.874498        -0.234727
 C         3.410392        -0.169761        -0.895325
 O         4.550205        -0.550235        -0.151718
 C         4.348308        -2.034410         0.023794
 C         2.836144        -2.164534         0.270937
 C         2.163367        -1.272360        -0.748460
 H        -0.319257        -0.300760        -1.391162
 H        -0.602644        -0.089827         0.394074
 H        -0.109504         1.274024        -0.803818
 H         2.774983         1.903490        -0.302684
 H         3.596730         0.295291        -1.927101
 H         4.492974        -2.712892        -0.878397
 H         4.890760        -2.205284         0.920839
 H         2.725593        -3.278094         0.239671
 H         2.469729        -1.767790         1.197016
 H         1.817800        -1.656325        -1.700389
