19
Iteration:  3678
 C        -0.046977         0.230670        -0.308594
 C         1.447815         0.026564        -0.079879
 O         2.247453         0.590876         0.928178
 C         2.567980         0.978122        -0.299901
 C         3.405051        -0.163296        -1.002656
 O         4.398731        -0.579150        -0.105379
 C         4.310609        -1.970058         0.290967
 C         2.849974        -2.424192        -0.045589
 C         2.186970        -1.281183        -0.704382
 H        -0.259152        -0.211250        -1.293341
 H        -0.868623        -0.173373         0.430047
 H        -0.103125         1.342689        -0.362479
 H         2.572874         2.102574        -0.510174
 H         3.805776         0.027403        -2.044015
 H         5.048553        -2.614980        -0.255599
 H         4.529043        -2.016836         1.390693
 H         3.158753        -3.349794        -0.609857
 H         2.223493        -2.765878         0.828541
 H         1.756356        -1.606610        -1.653270
