19
Iteration:  2444charge 0 multiplicity 1
 C         0.018883         0.613026        -0.430337
 C         1.367885        -0.085174        -0.219659
 O         2.020045         0.241388         1.063770
 C         2.521793         0.801669        -0.198090
 C         3.415091        -0.237939        -0.944632
 O         4.583827        -0.549695        -0.304281
 C         4.287860        -1.949116         0.141874
 C         2.887521        -2.268655         0.260553
 C         2.310751        -1.220830        -0.753695
 H        -0.016881         1.591480        -1.108011
 H        -0.890373         0.053702        -0.787710
 H        -0.224668         0.952482         0.655398
 H         2.552177         1.881790        -0.221447
 H         3.569222        -0.049902        -2.008360
 H         4.935554        -2.599815        -0.415735
 H         4.705630        -1.934213         1.174581
 H         2.637972        -3.351571        -0.056242
 H         2.394450        -2.042867         1.232685
 H         1.819604        -1.741868        -1.611751
