19
Iteration:  2249charge 0 multiplicity 1
 C        -0.061800         0.153375        -0.124992
 C         1.427806         0.008369        -0.137958
 O         2.113605         0.487933         1.039661
 C         2.609564         0.941711        -0.181832
 C         3.536477        -0.077813        -0.921179
 O         4.569518        -0.784988        -0.285297
 C         4.085828        -1.905841         0.434859
 C         2.873215        -2.345151        -0.277516
 C         2.282193        -1.044878        -0.906307
 H        -0.610362        -0.769823        -0.350328
 H        -0.343295         0.499263         0.835347
 H        -0.406741         0.862008        -0.905622
 H         2.597936         2.003350        -0.338174
 H         3.852090         0.325075        -1.908697
 H         5.021343        -2.582547         0.537167
 H         3.750170        -1.651650         1.484388
 H         3.057934        -2.967689        -1.127557
 H         2.150391        -2.995014         0.260122
 H         1.828509        -1.057409        -1.898201
