19
Iteration:  4417
 C        -0.114838         0.292724        -0.258519
 C         1.395224        -0.036786        -0.284515
 O         2.111399         0.432145         0.923337
 C         2.587675         0.906480        -0.349276
 C         3.455046        -0.207118        -1.007591
 O         4.551582        -0.629871        -0.232279
 C         4.360629        -1.896909         0.375454
 C         2.821235        -2.226684         0.220040
 C         2.228295        -1.218704        -0.805934
 H        -0.817197         0.036477        -1.008327
 H        -0.434894        -0.251060         0.550094
 H        -0.157002         1.374809        -0.256370
 H         2.618633         2.008877        -0.317806
 H         3.774833         0.191442        -2.032064
 H         4.872243        -2.780327         0.001002
 H         4.867286        -1.643926         1.358533
 H         2.716118        -3.210795        -0.269029
 H         2.090109        -2.374108         1.104700
 H         1.926087        -1.871070        -1.592012
