19
Iteration:  2013
 C        -0.015428         0.187823        -0.372025
 C         1.429768        -0.021698        -0.163288
 O         2.074753         0.359937         1.144688
 C         2.496516         1.016072        -0.093618
 C         3.511832        -0.001882        -0.838607
 O         4.606057        -0.647147        -0.167588
 C         4.242869        -2.060374         0.037080
 C         2.741156        -2.290833        -0.082355
 C         2.314536        -1.078610        -0.837437
 H        -0.656378        -0.608180         0.074142
 H        -0.376746         1.165964        -0.075164
 H        -0.183127         0.006400        -1.484731
 H         2.513984         2.099491        -0.172513
 H         3.746564         0.309375        -1.865429
 H         4.896588        -2.659847        -0.574911
 H         4.645857        -2.364362         1.039868
 H         2.434890        -3.335392        -0.223132
 H         2.390741        -2.204676         0.978810
 H         1.904044        -1.146428        -1.839908
