19
Iteration:  4757charge 0 multiplicity 1
 C        -0.100311         0.094111        -0.268498
 C         1.471087         0.033819        -0.145497
 O         2.147712         0.660393         0.891732
 C         2.638314         1.013753        -0.419710
 C         3.399752        -0.218674        -0.955694
 O         4.514798        -0.691342        -0.214221
 C         4.294559        -1.939746         0.397352
 C         2.819852        -2.329088         0.124680
 C         2.252562        -1.183336        -0.757755
 H        -0.257465         0.560090        -1.306654
 H        -0.775571        -0.882956        -0.119452
 H        -0.498001         0.802930         0.496372
 H         2.478580         1.961666        -0.985940
 H         3.762101        -0.130931        -1.979866
 H         4.870135        -2.882763         0.149777
 H         4.509587        -1.677843         1.451691
 H         2.753081        -3.352050        -0.375221
 H         2.332834        -2.385666         1.122925
 H         1.781405        -1.485444        -1.715363
