19
Iteration:  3968
 C        -0.044949         0.124459        -0.446681
 C         1.389062         0.047866        -0.167459
 O         2.235051         0.500573         0.966360
 C         2.541337         0.965978        -0.372437
 C         3.381058        -0.151328        -0.896191
 O         4.519433        -0.602577        -0.169031
 C         4.319586        -2.011019         0.198292
 C         2.812033        -2.280985         0.197404
 C         2.247312        -1.170865        -0.639254
 H        -0.115508         0.377452        -1.547316
 H        -0.619163        -0.739827        -0.167486
 H        -0.509820         1.000521         0.102385
 H         2.266640         2.065015        -0.464521
 H         3.655912        -0.184625        -1.980882
 H         4.956205        -2.709606        -0.448775
 H         4.708065        -1.999131         1.231916
 H         2.565204        -3.246878        -0.219769
 H         2.313547        -2.280159         1.170231
 H         1.829233        -1.262574        -1.633500
