19
Iteration:  1406charge 0 multiplicity 1
 C        -0.089101         0.111797        -0.410731
 C         1.460494         0.066100        -0.290049
 O         1.881629         0.218005         1.047494
 C         2.764599         0.982274         0.092854
 C         3.540462        -0.006468        -0.754463
 O         4.698579        -0.679881        -0.339310
 C         4.222696        -2.033379        -0.031246
 C         2.643292        -2.049683         0.200601
 C         2.313627        -1.079644        -0.858282
 H        -0.533261        -0.514836         0.364478
 H        -0.492978         1.067225        -0.323192
 H        -0.538396        -0.283458        -1.331931
 H         3.075710         1.952589         0.451707
 H         3.716398         0.471818        -1.742993
 H         4.454608        -2.683353        -0.868165
 H         4.946433        -2.396398         0.720414
 H         2.325954        -3.153506        -0.067688
 H         2.214814        -1.775616         1.176326
 H         2.137487        -1.515427        -1.815449
