19
Iteration:  1057charge 0 multiplicity 1
 C        -0.031059        -0.029964        -0.065506
 C         1.482416         0.052425        -0.121032
 O         2.257622         0.464384         0.963940
 C         2.623167         1.050025        -0.298366
 C         3.540172        -0.053245        -0.978882
 O         4.461892        -0.651418        -0.102945
 C         4.038751        -2.058861         0.363038
 C         2.728197        -2.274643        -0.200536
 C         2.314367        -1.027496        -0.965637
 H        -0.456410        -0.700489         0.730184
 H        -0.458701         1.035721         0.134504
 H        -0.485756        -0.291829        -1.049678
 H         2.766603         2.114735        -0.244605
 H         4.015879         0.199475        -1.941175
 H         4.794655        -2.762289        -0.025544
 H         4.138235        -2.085075         1.504815
 H         2.762703        -3.117324        -0.899491
 H         2.005905        -2.441527         0.533972
 H         1.919665        -1.179854        -2.035926
