19
Iteration:   578
 C        -0.087778         0.154660        -0.232852
 C         1.401884         0.088437        -0.282994
 O         1.912958         0.277439         1.071151
 C         2.688241         0.941281         0.006277
 C         3.575607        -0.065397        -0.871478
 O         4.700797        -0.810738        -0.506625
 C         4.163377        -1.883872         0.391697
 C         2.756298        -2.209401        -0.027216
 C         2.298664        -1.010623        -0.959070
 H        -0.347502        -0.488558         0.658550
 H        -0.467595         1.198380         0.007279
 H        -0.396306        -0.142297        -1.275044
 H         2.981597         1.971072         0.162650
 H         3.817769         0.499278        -1.779874
 H         4.960960        -2.770249         0.337429
 H         4.206626        -1.495728         1.379228
 H         2.522052        -3.249119        -0.392698
 H         2.086548        -2.246082         0.824920
 H         2.122425        -1.260925        -1.980391
