19
Iteration:  2441charge 0 multiplicity 1
 C         0.058214         0.622502        -0.463200
 C         1.365610        -0.081767        -0.175096
 O         2.006366         0.224346         1.059147
 C         2.523389         0.817912        -0.200697
 C         3.403117        -0.204695        -0.940484
 O         4.588571        -0.572315        -0.300752
 C         4.332551        -1.928436         0.126126
 C         2.879274        -2.272672         0.280669
 C         2.258846        -1.242850        -0.746860
 H        -0.017486         1.577376        -1.045877
 H        -0.787850        -0.071383        -0.777467
 H        -0.208233         0.945681         0.534034
 H         2.527379         1.869263        -0.261302
 H         3.583620         0.019949        -2.026405
 H         4.868578        -2.602255        -0.548088
 H         4.701516        -1.874368         1.126852
 H         2.539098        -3.375430         0.055916
 H         2.411549        -2.080077         1.203381
 H         1.872654        -1.699340        -1.681568
