19
Iteration:  3255charge 0 multiplicity 1
 C        -0.005898         0.396799        -0.482636
 C         1.409591        -0.008709        -0.134843
 O         2.075393         0.305795         1.057305
 C         2.636311         0.861387        -0.158035
 C         3.306567        -0.249689        -1.009981
 O         4.607108        -0.748058        -0.563839
 C         4.356484        -1.744402         0.362145
 C         2.768863        -2.198906         0.300883
 C         2.208368        -1.207680        -0.679770
 H         0.061981         0.736452        -1.529338
 H        -0.824661        -0.386046        -0.747546
 H        -0.361677         1.157719         0.265834
 H         2.910321         1.913402        -0.290015
 H         3.394730         0.016113        -2.108485
 H         5.105372        -2.529172         0.306108
 H         4.571041        -1.349511         1.380333
 H         2.950106        -3.239979         0.029329
 H         2.271802        -2.212202         1.283632
 H         1.698674        -1.554618        -1.586073
