19
Iteration:   338charge 0 multiplicity 1
 C        -0.131070         0.531948        -0.300973
 C         1.322449         0.014992        -0.247440
 O         1.901466         0.344820         1.129246
 C         2.515353         0.918216         0.002232
 C         3.491698        -0.097822        -0.880775
 O         4.753927        -0.806944        -0.497817
 C         4.321573        -1.914774         0.453039
 C         2.938850        -2.428310        -0.113088
 C         2.293192        -1.168237        -0.900551
 H        -0.236151         1.245696         0.611091
 H        -0.365710         1.108339        -1.216710
 H        -0.960759        -0.295055        -0.175885
 H         2.561445         2.028029         0.011598
 H         3.577359         0.492575        -1.806542
 H         5.111713        -2.699232         0.426870
 H         4.204824        -1.401249         1.371925
 H         3.153146        -3.266508        -0.977027
 H         2.372822        -2.977385         0.613434
 H         1.934199        -1.453752        -1.836630
