19
Iteration:  2378charge 0 multiplicity 1
 C         0.016600         0.080432        -0.508572
 C         1.422355         0.056004        -0.182658
 O         1.882204         0.528876         1.081028
 C         2.563664         1.095015         0.033049
 C         3.462799        -0.141569        -0.791192
 O         4.689407        -0.784309        -0.325941
 C         4.257948        -2.194236        -0.078397
 C         2.818499        -2.130047         0.251030
 C         2.306497        -1.037885        -0.760158
 H        -0.194811        -0.030024        -1.627105
 H        -0.585566        -0.677314        -0.014012
 H        -0.297804         1.010044         0.026562
 H         2.719147         2.137355        -0.016543
 H         3.643684         0.273505        -1.770729
 H         4.414045        -2.847996        -0.951345
 H         4.928098        -2.629669         0.655063
 H         2.196369        -2.970829        -0.137951
 H         2.692795        -1.830045         1.254003
 H         2.019122        -1.405585        -1.770735
