19
Iteration:  4784
 C        -0.066939         0.128082        -0.435904
 C         1.443644         0.057308        -0.154730
 O         2.159127         0.577681         1.024890
 C         2.538176         0.961525        -0.385825
 C         3.446262        -0.210663        -0.986165
 O         4.613475        -0.646380        -0.316596
 C         4.306593        -1.945482         0.304027
 C         2.726787        -2.288356         0.257511
 C         2.236344        -1.190424        -0.643084
 H        -0.146350         0.142390        -1.472290
 H        -0.590695        -0.658448        -0.046132
 H        -0.590731         0.994314        -0.037914
 H         2.388399         1.948712        -0.782763
 H         3.796105        -0.043003        -2.053459
 H         4.778365        -2.872844        -0.055044
 H         4.714697        -1.766458         1.311800
 H         2.497974        -3.258080        -0.151122
 H         2.369291        -2.272588         1.293595
 H         1.719297        -1.578092        -1.530057
