19
Iteration:  2551
 C         0.021375         0.059078         0.061445
 C         1.442414         0.046526        -0.228270
 O         2.292254         0.426404         0.974076
 C         2.721883         0.953547        -0.327479
 C         3.510075        -0.097809        -0.952900
 O         4.546036        -0.777979        -0.225167
 C         3.880381        -1.758314         0.626497
 C         2.784357        -2.286623        -0.309112
 C         2.177955        -1.083445        -1.035824
 H        -0.358330        -0.482767        -0.783598
 H        -0.147469        -0.405483         1.014710
 H        -0.406149         1.064459         0.005417
 H         2.749079         2.031536        -0.538849
 H         3.963581         0.163791        -1.939158
 H         4.566683        -2.600461         0.789771
 H         3.511960        -1.250901         1.529687
 H         3.092007        -3.119075        -1.040458
 H         2.075535        -2.751288         0.344066
 H         1.948136        -1.348426        -2.102196
