19
Iteration:  3264charge 0 multiplicity 1
 C        -0.033508         0.344170        -0.513031
 C         1.368913         0.015147        -0.120047
 O         2.072521         0.308774         1.062594
 C         2.641366         0.820223        -0.182014
 C         3.417078        -0.222435        -0.962696
 O         4.630459        -0.780540        -0.639158
 C         4.326832        -1.783802         0.385920
 C         2.768262        -2.138231         0.306972
 C         2.250509        -1.162171        -0.674679
 H        -0.156119         0.744529        -1.488497
 H        -0.676895        -0.592829        -0.294135
 H        -0.494443         1.161423         0.070781
 H         2.646482         1.906626        -0.071501
 H         3.469938         0.237671        -1.954320
 H         5.038381        -2.576956         0.189170
 H         4.290365        -1.364506         1.394214
 H         2.425021        -3.127022        -0.064877
 H         2.427408        -2.019533         1.375961
 H         1.777454        -1.636132        -1.549793
