19
Iteration:  1682charge 0 multiplicity 1
 C        -0.079340         0.293401        -0.479788
 C         1.389305         0.034881        -0.133501
 O         2.113475         0.258908         1.120218
 C         2.619715         0.944235        -0.155140
 C         3.465615        -0.081634        -0.892530
 O         4.595296        -0.606642        -0.142743
 C         4.294880        -2.012525         0.017739
 C         2.842695        -2.254782         0.132449
 C         2.154018        -1.112410        -0.820394
 H        -0.613816        -0.666271        -0.372038
 H        -0.637649         1.076082         0.137347
 H        -0.192860         0.781019        -1.398368
 H         2.551173         2.034155        -0.155255
 H         3.837416         0.217709        -1.891091
 H         4.778044        -2.622195        -0.798131
 H         4.834702        -2.291565         0.990605
 H         2.521097        -3.237799        -0.233785
 H         2.348500        -2.340210         1.130904
 H         1.855408        -1.450818        -1.786507
