19
Iteration:  4309charge 0 multiplicity 1
 C         0.041559         0.349201        -0.132846
 C         1.424475        -0.089349        -0.274369
 O         2.190711         0.282074         0.921872
 C         2.604167         0.867524        -0.367372
 C         3.403363        -0.143008        -1.050376
 O         4.511142        -0.689036        -0.351468
 C         4.129163        -1.575661         0.676156
 C         2.819838        -2.369951         0.078110
 C         2.262441        -1.211278        -0.940997
 H        -0.383926         0.472811        -1.147057
 H        -0.563294        -0.569638         0.371527
 H        -0.131099         1.272240         0.541578
 H         2.689834         1.957582        -0.468737
 H         3.702476         0.039716        -2.103342
 H         4.923046        -2.358663         0.805420
 H         4.022283        -1.030791         1.672360
 H         3.163866        -3.260534        -0.421350
 H         1.977271        -2.479946         0.842974
 H         2.013807        -1.796891        -1.814970
