19
Iteration:  2207charge 0 multiplicity 1
 C         0.024374        -0.005061        -0.214864
 C         1.494726         0.044554        -0.177043
 O         2.252364         0.189516         1.076654
 C         2.715014         0.917114        -0.076883
 C         3.495907        -0.027930        -1.052164
 O         4.489075        -0.780112        -0.367121
 C         3.984382        -1.702388         0.576017
 C         2.686349        -2.169066        -0.179188
 C         2.284302        -0.912668        -1.012418
 H        -0.272698        -0.990022         0.207047
 H        -0.500506         0.663780         0.446386
 H        -0.270095        -0.064129        -1.310261
 H         2.780002         1.965847        -0.017963
 H         3.987968         0.417840        -1.951047
 H         4.623033        -2.561222         0.565933
 H         3.731765        -1.262346         1.575988
 H         2.983589        -3.047898        -0.757059
 H         1.938040        -2.460854         0.681834
 H         1.784238        -1.278516        -1.883183
