19
Iteration:  1675
 C        -0.045638         0.339726        -0.381907
 C         1.410349        -0.006235        -0.097558
 O         2.074817         0.253590         1.103865
 C         2.592789         0.941864        -0.203249
 C         3.412301        -0.083943        -0.946589
 O         4.566194        -0.600706        -0.093859
 C         4.364372        -2.013459         0.052423
 C         2.801579        -2.257067         0.081241
 C         2.210686        -1.150389        -0.886337
 H        -0.820084        -0.421249        -0.412744
 H        -0.433852         1.180871         0.139926
 H         0.024265         0.800861        -1.435034
 H         2.551731         2.008357        -0.138775
 H         3.782394         0.395584        -1.877879
 H         4.817090        -2.629753        -0.729767
 H         4.734532        -2.284336         1.094814
 H         2.633698        -3.320206        -0.244880
 H         2.490884        -2.065635         1.157191
 H         1.867330        -1.689573        -1.840100
