19
Iteration:   270
 C        -0.025448         0.077909        -0.241416
 C         1.472966         0.079192        -0.231873
 O         2.230249         0.123397         1.014203
 C         2.625347         0.962274        -0.085819
 C         3.503066         0.036486        -0.879200
 O         4.550669        -0.767445        -0.321513
 C         4.075996        -1.887234         0.474818
 C         2.674814        -2.144878        -0.112765
 C         2.316865        -0.926621        -1.005047
 H        -0.521487         1.076450        -0.178634
 H        -0.415083        -0.395385        -1.213467
 H        -0.468226        -0.554198         0.653286
 H         2.736239         2.047872        -0.013391
 H         4.012752         0.432130        -1.758494
 H         4.806010        -2.733955         0.314585
 H         3.895370        -1.657591         1.516438
 H         2.598955        -3.086622        -0.803041
 H         1.869296        -2.311246         0.683920
 H         2.138757        -1.212991        -2.034423
