19
Iteration:  1934charge 0 multiplicity 1
 C        -0.097128         0.287004        -0.089677
 C         1.387162        -0.018901        -0.157857
 O         2.118649         0.214101         1.055486
 C         2.478814         0.937141        -0.157104
 C         3.552580        -0.077361        -1.027705
 O         4.665348        -0.762918        -0.305213
 C         4.068731        -1.824594         0.544858
 C         2.854861        -2.278742        -0.256848
 C         2.342485        -1.079562        -1.029075
 H        -0.567094        -0.531129         0.513594
 H        -0.132908         1.269743         0.393563
 H        -0.454419         0.528293        -1.088019
 H         2.529471         2.059048        -0.209832
 H         3.951456         0.445277        -1.888034
 H         4.824482        -2.504565         0.800215
 H         3.735396        -1.243533         1.403566
 H         3.243238        -2.868902        -1.045989
 H         2.191431        -2.779246         0.452238
 H         1.951120        -1.277611        -1.981013
