19
Iteration:  3835charge 0 multiplicity 1
 C        -0.111780         0.315102        -0.352910
 C         1.337232        -0.021678        -0.177704
 O         2.034778         0.557415         0.983013
 C         2.548983         0.914003        -0.263726
 C         3.369916        -0.177980        -0.866694
 O         4.682077        -0.658069        -0.298357
 C         4.394734        -1.963097         0.316438
 C         2.903208        -2.347846         0.131332
 C         2.212921        -1.226121        -0.775353
 H        -0.373148         0.207666        -1.458781
 H        -0.838322        -0.325935         0.169005
 H        -0.231056         1.402751        -0.148849
 H         2.667384         1.954562        -0.507600
 H         3.712818        -0.026535        -1.865160
 H         4.976227        -2.538269        -0.381358
 H         4.704584        -2.094235         1.349449
 H         2.709243        -3.286740        -0.454975
 H         2.560443        -2.380637         1.138301
 H         1.642954        -1.535857        -1.650168
