19
Iteration:  3543charge 0 multiplicity 1
 C        -0.028145         0.401311        -0.522045
 C         1.366612         0.014342        -0.102920
 O         1.980487         0.492355         1.130704
 C         2.586814         0.804945        -0.273940
 C         3.319265        -0.296232        -0.942715
 O         4.584370        -0.634671        -0.407865
 C         4.418440        -1.915383         0.193478
 C         2.936585        -2.246326         0.272469
 C         2.254358        -1.222926        -0.643712
 H         0.013530         0.148374        -1.666153
 H        -0.849816        -0.192549        -0.088587
 H        -0.222855         1.513532        -0.437542
 H         2.575038         1.906133        -0.351037
 H         3.409155         0.060341        -2.020370
 H         4.910559        -2.765887        -0.349754
 H         4.833323        -1.924869         1.219203
 H         2.851027        -3.222034        -0.170010
 H         2.453440        -2.371211         1.256088
 H         1.602537        -1.677952        -1.441432
