19
Iteration:  1376charge 0 multiplicity 1
 C        -0.061941         0.205125        -0.386536
 C         1.462170         0.038377        -0.183144
 O         2.071513         0.225654         1.136947
 C         2.563897         1.052786        -0.115225
 C         3.544385        -0.007679        -0.856506
 O         4.553108        -0.654746        -0.091522
 C         4.308900        -2.113578        -0.032704
 C         2.746313        -2.159848        -0.007277
 C         2.233514        -1.097016        -0.884244
 H        -0.624453        -0.274663         0.444646
 H        -0.352997         1.249916        -0.491926
 H        -0.373431        -0.258848        -1.303740
 H         2.486419         2.121100         0.009138
 H         3.882128         0.322433        -1.840151
 H         4.806112        -2.740797        -0.828462
 H         4.780127        -2.357513         1.017323
 H         2.384263        -3.175913        -0.071956
 H         2.447677        -1.934754         1.034070
 H         1.866978        -1.434453        -1.821514
