19
Iteration:  2688
 C        -0.082361         0.205630        -0.361107
 C         1.497000         0.164845        -0.291689
 O         1.999512         0.204029         1.069883
 C         2.733976         0.926326         0.022768
 C         3.421284        -0.179287        -0.920352
 O         4.636051        -0.763517        -0.503512
 C         4.273118        -1.986887         0.287179
 C         2.710236        -2.067145         0.168486
 C         2.259813        -1.007089        -0.865030
 H        -0.495992        -0.014672        -1.342480
 H        -0.477188        -0.468332         0.531103
 H        -0.522849         1.191338        -0.087661
 H         2.836507         1.985404        -0.028327
 H         3.719872         0.318559        -1.811944
 H         4.772590        -2.861064        -0.104927
 H         4.559712        -1.714066         1.298430
 H         2.445909        -3.026287        -0.253965
 H         2.214160        -1.847679         1.152570
 H         1.887792        -1.624007        -1.629403
