19
Iteration:  2070
 C        -0.097676         0.189087        -0.342778
 C         1.408438         0.023692        -0.221892
 O         1.983928         0.332186         1.022721
 C         2.542315         0.985765        -0.101113
 C         3.577490        -0.040190        -0.806034
 O         4.582909        -0.705777        -0.058370
 C         4.345264        -2.123455        -0.116544
 C         2.787861        -2.128180         0.144735
 C         2.291961        -1.049778        -0.853793
 H        -0.540217        -0.791953        -0.168499
 H        -0.662899         0.867061         0.346839
 H        -0.313920         0.405435        -1.402165
 H         2.680539         2.037998        -0.086941
 H         3.943697         0.287826        -1.799743
 H         4.373989        -2.449392        -1.126210
 H         5.094371        -2.580585         0.554090
 H         2.415452        -3.123938        -0.230251
 H         2.660510        -1.894455         1.197792
 H         1.872430        -1.392916        -1.855059
