19
Iteration:  1926
 C        -0.060604         0.225396        -0.079949
 C         1.466385         0.018918        -0.205840
 O         2.128359         0.157888         1.046427
 C         2.602811         0.953124        -0.177562
 C         3.484055        -0.050677        -0.978095
 O         4.666306        -0.773956        -0.334879
 C         4.014108        -1.734917         0.569999
 C         2.839242        -2.312849        -0.225622
 C         2.309065        -1.012601        -1.011368
 H        -0.611526        -0.644033         0.356101
 H        -0.312548         1.060588         0.545804
 H        -0.577400         0.263701        -1.091645
 H         2.567359         2.056592        -0.180009
 H         3.784468         0.283609        -1.995666
 H         4.780495        -2.441553         0.825303
 H         3.592488        -1.211136         1.506712
 H         3.198788        -3.059884        -1.018748
 H         1.943775        -2.735663         0.296874
 H         1.931913        -1.092384        -2.053943
