19
Iteration:  4265charge 0 multiplicity 1
 C        -0.061227         0.191485        -0.264279
 C         1.423673         0.022327        -0.148955
 O         2.158168         0.468859         0.970400
 C         2.582561         0.899110        -0.333888
 C         3.476024        -0.210587        -1.007947
 O         4.538990        -0.706965        -0.330308
 C         4.224557        -1.782161         0.532148
 C         2.830664        -2.289581         0.078901
 C         2.233284        -1.190241        -0.855547
 H        -0.303126        -0.262533        -1.225643
 H        -0.659801        -0.143918         0.650371
 H        -0.352917         1.263779        -0.240094
 H         2.696556         1.953927        -0.575286
 H         3.700615         0.124336        -2.044423
 H         5.018747        -2.508204         0.274456
 H         4.212905        -1.511892         1.622199
 H         2.891313        -3.174993        -0.517580
 H         2.174986        -2.592754         0.940577
 H         1.817213        -1.352368        -1.856853
