19
Iteration:  3506
 C        -0.029109         0.428186        -0.276924
 C         1.357096        -0.018532        -0.282283
 O         2.014715         0.294763         0.944587
 C         2.505717         0.845124        -0.262759
 C         3.386961        -0.200610        -0.957006
 O         4.619656        -0.717355        -0.436015
 C         4.344649        -1.828280         0.399738
 C         2.857713        -2.173394         0.299577
 C         2.293032        -1.244570        -0.785663
 H        -0.548874         0.307651        -1.197080
 H        -0.577598         0.075646         0.601957
 H        -0.000777         1.498052        -0.117647
 H         2.640509         1.884346        -0.530916
 H         3.540663         0.037275        -2.021317
 H         5.049785        -2.652290         0.147424
 H         4.674898        -1.476672         1.412749
 H         2.943451        -3.154834        -0.212657
 H         2.292431        -2.175679         1.207304
 H         2.100897        -1.616489        -1.774107
