19
Iteration:  2878
 C        -0.002974         0.214664         0.011930
 C         1.507290        -0.034834        -0.157657
 O         2.234775         0.548354         0.936618
 C         2.595225         0.897072        -0.468213
 C         3.494757        -0.235205        -1.004792
 O         4.496533        -0.664443        -0.197901
 C         4.017821        -1.856432         0.534603
 C         2.791523        -2.355471        -0.132060
 C         2.264415        -1.150900        -0.961310
 H        -0.122248         0.455250         1.142320
 H        -0.236184         1.019453        -0.664436
 H        -0.700146        -0.619044        -0.323464
 H         2.580403         1.948084        -0.437412
 H         3.819438         0.117060        -1.989685
 H         4.945375        -2.482588         0.518585
 H         3.942966        -1.506460         1.546513
 H         3.041097        -3.275881        -0.723658
 H         1.982658        -2.692297         0.542750
 H         1.895324        -1.181068        -2.029049
