19
Iteration:  1775charge 0 multiplicity 1
 C         0.014474         0.310635        -0.406329
 C         1.424359         0.055591        -0.208095
 O         1.974017         0.305729         1.102989
 C         2.607690         0.919312        -0.098702
 C         3.452000        -0.149873        -0.846955
 O         4.524030        -0.597625        -0.050077
 C         4.380136        -2.021088        -0.123129
 C         2.789418        -2.217713         0.122077
 C         2.258602        -1.124390        -0.845418
 H        -0.504586        -0.245182         0.333317
 H        -0.365981         1.299659        -0.357769
 H        -0.398382        -0.008772        -1.393461
 H         2.774044         2.029856        -0.040585
 H         3.635715        -0.043521        -1.938932
 H         4.659176        -2.510589        -1.111048
 H         5.019976        -2.374703         0.673882
 H         2.489434        -3.212875        -0.265066
 H         2.704437        -2.262674         1.197710
 H         1.755732        -1.596367        -1.773519
