19
Iteration:     8charge 0 multiplicity 1
 C        -0.107817         0.312366        -0.218578
 C         1.422780        -0.003602        -0.148839
 O         2.128796         0.280626         1.028322
 C         2.642255         0.909265        -0.095700
 C         3.441703        -0.020315        -0.898880
 O         4.599321        -0.738811        -0.313279
 C         4.131004        -1.831097         0.442651
 C         2.871593        -2.387377        -0.165498
 C         2.305786        -1.080067        -0.999532
 H        -0.376044         1.219211         0.265133
 H        -0.362237         0.452266        -1.263366
 H        -0.689287        -0.532773         0.134788
 H         2.560175         1.990116        -0.090886
 H         3.833754         0.396857        -1.854861
 H         4.984286        -2.590258         0.566142
 H         3.936783        -1.472756         1.455343
 H         2.796787        -3.167566        -0.905421
 H         2.135218        -2.693224         0.516514
 H         1.912226        -1.397226        -1.974790
