19
Iteration:  4885
 C        -0.038054         0.165956        -0.485110
 C         1.402504         0.042151        -0.106343
 O         2.032641         0.609712         0.973703
 C         2.588523         0.953713        -0.401862
 C         3.369326        -0.218745        -0.902629
 O         4.561292        -0.633642        -0.220263
 C         4.426248        -2.021226         0.076780
 C         2.803763        -2.230789         0.399547
 C         2.219207        -1.241183        -0.598589
 H        -0.093273        -0.120135        -1.561636
 H        -0.789082        -0.373713        -0.080063
 H        -0.242035         1.210213        -0.610190
 H         2.881189         2.048743        -0.555419
 H         3.669045        -0.031078        -1.977150
 H         4.750436        -2.602963        -0.819710
 H         4.933057        -2.325157         1.037585
 H         2.489356        -3.192693         0.040208
 H         2.660356        -2.220113         1.492236
 H         1.837390        -1.727692        -1.515253
