19
Iteration:  3292charge 0 multiplicity 1
 C        -0.030889         0.141258        -0.351988
 C         1.452249         0.065989        -0.242601
 O         1.993050         0.431587         1.035888
 C         2.616064         0.976181        -0.063676
 C         3.446385        -0.221528        -0.954958
 O         4.603268        -0.925201        -0.612057
 C         4.330946        -1.827209         0.393166
 C         2.720758        -2.085248         0.275506
 C         2.322960        -1.113926        -0.840051
 H        -0.369739         0.036681        -1.441255
 H        -0.434643        -0.471998         0.397430
 H        -0.376178         1.163611        -0.181618
 H         2.654205         2.054118         0.071116
 H         3.625260         0.362392        -1.850755
 H         4.931998        -2.722217         0.098639
 H         4.432523        -1.571230         1.454116
 H         2.451372        -3.099103        -0.123448
 H         2.246477        -1.898633         1.232035
 H         1.861141        -1.519663        -1.757285
