19
Iteration:  3391charge 0 multiplicity 1
 C        -0.019393         0.302809         0.073447
 C         1.424516         0.055158        -0.165284
 O         2.265078         0.563560         0.779226
 C         2.493303         0.954390        -0.574832
 C         3.426650        -0.231088        -0.955875
 O         4.432499        -0.658631        -0.060853
 C         4.146682        -1.916242         0.549289
 C         2.900824        -2.382056        -0.177372
 C         2.271702        -1.232585        -0.892999
 H        -0.509445         0.389056        -0.939093
 H        -0.342965        -0.580636         0.604650
 H        -0.201022         1.138806         0.729439
 H         2.714410         1.974698        -0.931443
 H         3.929555        -0.168888        -1.935207
 H         4.867397        -2.731680         0.467762
 H         4.013536        -1.793099         1.599619
 H         3.384906        -3.114572        -0.791989
 H         2.167746        -2.807311         0.521044
 H         1.943261        -1.709398        -1.823027
