19
Iteration:  3768
 C        -0.015895         0.019080        -0.154271
 C         1.480997         0.062547        -0.202508
 O         2.289347         0.288105         1.018843
 C         2.717879         0.847736        -0.355607
 C         3.451455        -0.131709        -1.149787
 O         4.571386        -0.687246        -0.334625
 C         3.976112        -1.681316         0.639479
 C         2.730577        -2.189212         0.039491
 C         2.234148        -1.092550        -0.952377
 H        -0.465624         0.161519        -1.165724
 H        -0.488562        -0.970686         0.188813
 H        -0.287831         0.892991         0.468313
 H         2.741712         1.900622        -0.228672
 H         3.676058         0.336966        -2.102200
 H         4.682324        -2.505912         0.825425
 H         3.813844        -1.032526         1.498644
 H         2.881171        -3.227374        -0.423046
 H         1.911755        -2.116746         0.739876
 H         1.735024        -1.401687        -1.853410
