19
Iteration:   775
 C         0.033263         0.020481         0.002067
 C         1.434063         0.102035        -0.392525
 O         2.038020         0.385919         0.949988
 C         2.624899         0.989380        -0.124196
 C         3.558479        -0.069451        -0.896075
 O         4.628280        -0.806705        -0.348714
 C         4.084924        -1.876616         0.485755
 C         2.671162        -2.250677        -0.102414
 C         2.299079        -0.993298        -1.047741
 H         0.002301        -0.850316         0.578902
 H        -0.324887         0.924157         0.498754
 H        -0.522767        -0.257969        -0.847041
 H         2.818930         2.081938        -0.040638
 H         4.034510         0.402475        -1.777736
 H         4.896319        -2.689263         0.649172
 H         3.897547        -1.415614         1.392643
 H         2.772477        -3.195605        -0.673467
 H         2.024234        -2.323970         0.810644
 H         2.131341        -1.335080        -2.046936
