19
Iteration:  4188
 C        -0.036947         0.214909        -0.305344
 C         1.532620         0.030836        -0.232876
 O         2.206083         0.379973         0.980251
 C         2.562839         0.951673        -0.328832
 C         3.447586        -0.178271        -0.949745
 O         4.577434        -0.692872        -0.388856
 C         4.192532        -1.715214         0.450364
 C         2.731415        -2.301863         0.171211
 C         2.194620        -1.280921        -0.784547
 H        -0.380346         0.110648        -1.344129
 H        -0.363148        -0.752775         0.146333
 H        -0.500990         1.126573         0.097541
 H         2.516325         2.028850        -0.454074
 H         3.694360         0.253998        -1.942409
 H         4.905484        -2.527093         0.625473
 H         4.191079        -1.265384         1.440165
 H         2.893432        -3.187348        -0.350136
 H         2.123155        -2.395741         1.103219
 H         1.757654        -1.371911        -1.757196
