19
Iteration:  2184charge 0 multiplicity 1
 C        -0.058070         0.133253        -0.152116
 C         1.428935         0.032333        -0.279174
 O         2.180646         0.143984         0.968047
 C         2.627163         0.975706        -0.091738
 C         3.508281        -0.050353        -0.922665
 O         4.685132        -0.656092        -0.299660
 C         4.110477        -1.827087         0.432254
 C         2.650869        -2.248293        -0.077858
 C         2.245934        -0.994897        -1.009560
 H        -0.461911        -0.564810         0.603772
 H        -0.434578         1.085130         0.119654
 H        -0.414020        -0.225303        -1.147549
 H         2.830367         2.033948         0.144896
 H         3.839802         0.288014        -1.932061
 H         4.816094        -2.678575         0.399737
 H         3.934187        -1.421377         1.427695
 H         2.723969        -3.184306        -0.668338
 H         2.014424        -2.408717         0.858225
 H         2.006498        -1.311076        -2.020469
