19
Iteration:  2930charge 0 multiplicity 1
 C        -0.003561         0.405132        -0.287780
 C         1.440342        -0.000390        -0.041055
 O         2.106103         0.585250         1.044441
 C         2.590322         0.861747        -0.269478
 C         3.367215        -0.265352        -1.040782
 O         4.587449        -0.745924        -0.421422
 C         4.226545        -1.837030         0.475953
 C         2.883191        -2.396917        -0.035439
 C         2.211031        -1.223696        -0.732964
 H        -0.664857        -0.377525         0.049730
 H        -0.312119         1.402581         0.090392
 H        -0.046346         0.437450        -1.388136
 H         2.549021         1.900364        -0.581771
 H         3.511407         0.116706        -2.044407
 H         5.130680        -2.445741         0.310511
 H         4.246077        -1.567109         1.527038
 H         2.974976        -3.277834        -0.730708
 H         2.297605        -2.922117         0.735308
 H         1.501168        -1.546336        -1.479774
