19
Iteration:   890charge 0 multiplicity 1
 C        -0.099186         0.291643        -0.302653
 C         1.364607         0.024889        -0.256572
 O         1.977641         0.214909         1.055170
 C         2.673262         0.917124         0.067723
 C         3.520465        -0.055501        -0.847067
 O         4.662841        -0.885180        -0.625614
 C         4.301613        -1.785785         0.403777
 C         2.768020        -2.215686         0.076958
 C         2.257846        -1.073336        -0.926345
 H        -0.700026        -0.669683        -0.237559
 H        -0.325386         1.060017         0.454794
 H        -0.575708         0.767626        -1.217900
 H         2.967058         2.001696         0.160938
 H         3.706570         0.552367        -1.744729
 H         4.912726        -2.612955         0.383953
 H         4.396027        -1.202226         1.376634
 H         2.740004        -3.215489        -0.343562
 H         2.138916        -2.180636         0.943781
 H         1.917323        -1.362511        -1.973283
