19
Iteration:  1445
 C        -0.081178         0.258710        -0.546220
 C         1.347685        -0.004194        -0.066392
 O         1.934592         0.437502         1.196162
 C         2.519133         0.942608        -0.001226
 C         3.473545        -0.042386        -0.773717
 O         4.658475        -0.714680        -0.358594
 C         4.376644        -2.097124         0.011675
 C         2.848305        -2.266732         0.032712
 C         2.325616        -1.117907        -0.791850
 H        -0.857579        -0.516368        -0.379610
 H        -0.181695         1.226594         0.073413
 H         0.011218         0.735930        -1.568512
 H         2.431038         2.050704        -0.061982
 H         3.708762         0.470153        -1.730345
 H         4.788434        -2.705115        -0.863496
 H         4.762007        -2.464100         1.010595
 H         2.527075        -3.271909        -0.158810
 H         2.427814        -2.172370         1.069376
 H         2.037499        -1.326674        -1.883471
