19
Iteration:  4465
 C        -0.119573         0.259540        -0.305464
 C         1.386581        -0.027055        -0.246720
 O         2.163171         0.473662         0.937165
 C         2.554872         0.843765        -0.375242
 C         3.413387        -0.239782        -0.988957
 O         4.475391        -0.589043        -0.139540
 C         4.395728        -2.017042         0.216878
 C         2.849690        -2.163210         0.320963
 C         2.302162        -1.121936        -0.767663
 H        -0.533765        -0.164230        -1.273307
 H        -0.819893        -0.229695         0.483129
 H        -0.213178         1.301793        -0.570354
 H         2.480295         1.910600        -0.542672
 H         3.812983         0.105401        -1.933942
 H         4.691620        -2.610339        -0.694711
 H         4.900977        -2.476384         1.055380
 H         2.679037        -3.242949         0.151181
 H         2.451612        -1.976738         1.302720
 H         1.803337        -1.506156        -1.702942
