19
Iteration:   469charge 0 multiplicity 1
 C        -0.040650         0.118699        -0.010912
 C         1.422069         0.005091        -0.263749
 O         2.076582         0.446600         1.022305
 C         2.622053         0.939430        -0.182842
 C         3.595090        -0.112350        -0.924446
 O         4.644704        -0.787039        -0.256021
 C         3.997212        -1.815738         0.480245
 C         2.763624        -2.303417        -0.286455
 C         2.353215        -1.033468        -1.030939
 H        -0.416009        -0.870151         0.493263
 H        -0.310096         0.879986         0.785166
 H        -0.787300         0.201244        -0.908939
 H         2.864213         1.969887        -0.371485
 H         3.973697         0.397880        -1.818581
 H         4.787774        -2.639853         0.802269
 H         3.691173        -1.396925         1.441355
 H         3.030318        -3.049200        -1.122181
 H         1.941208        -2.658313         0.323917
 H         2.001843        -1.296289        -1.984205
