19
Iteration:  3590charge 0 multiplicity 1
 C        -0.100194         0.097733        -0.502554
 C         1.352959         0.026850        -0.142955
 O         2.041781         0.538071         1.052309
 C         2.549752         0.946748        -0.232450
 C         3.507491        -0.120249        -0.900625
 O         4.625870        -0.740027        -0.269485
 C         4.353129        -2.116910         0.029116
 C         2.782442        -2.027553         0.372592
 C         2.297973        -1.148975        -0.717413
 H        -0.253757         0.287611        -1.592481
 H        -0.625813        -0.860857        -0.146598
 H        -0.539298         0.936557         0.104910
 H         2.642065         2.004201        -0.452898
 H         3.770319         0.079231        -1.956040
 H         4.351945        -2.831610        -0.807040
 H         5.085489        -2.482872         0.778626
 H         2.394431        -3.080461         0.327194
 H         2.411919        -1.647047         1.381530
 H         2.022219        -1.389238        -1.746388
