19
Iteration:  2864charge 0 multiplicity 1
 C         0.047443         0.110955         0.056975
 C         1.475128        -0.061850        -0.240988
 O         2.322817         0.455618         0.871966
 C         2.607069         0.941671        -0.385178
 C         3.513964        -0.130491        -1.049771
 O         4.570950        -0.634595        -0.171685
 C         3.969950        -1.786102         0.582892
 C         2.644405        -2.323629        -0.173418
 C         2.285587        -1.127203        -0.949016
 H        -0.069417         0.543513         1.030128
 H        -0.524029         0.869081        -0.606337
 H        -0.470398        -0.864297         0.079516
 H         2.642636         1.987731        -0.800148
 H         3.921349        -0.044787        -2.042127
 H         4.653091        -2.642742         0.747337
 H         3.568709        -1.482993         1.531123
 H         2.667173        -3.311569        -0.753664
 H         1.864204        -2.557892         0.644853
 H         1.800271        -1.436655        -1.864459
