19
Iteration:  2432
 C         0.091316         0.586774        -0.491042
 C         1.371483        -0.046491        -0.138466
 O         1.995342         0.216667         1.056058
 C         2.548231         0.848108        -0.184134
 C         3.362094        -0.134332        -0.930242
 O         4.579412        -0.616203        -0.308653
 C         4.443148        -1.926519         0.128098
 C         2.815418        -2.251487         0.279639
 C         2.157229        -1.291266        -0.740838
 H         0.225555         1.478698        -1.244369
 H        -0.590769        -0.223303        -0.885317
 H        -0.384789         0.981040         0.464876
 H         2.489082         1.898216        -0.262757
 H         3.550588         0.228521        -1.952217
 H         4.796840        -2.614415        -0.613818
 H         5.012685        -2.089682         1.067819
 H         2.580234        -3.382097         0.121055
 H         2.582021        -1.985846         1.312027
 H         1.932055        -1.654384        -1.760467
