19
Iteration:  3664charge 0 multiplicity 1
 C        -0.037540         0.251593        -0.330237
 C         1.419972        -0.032721        -0.101289
 O         2.230811         0.549571         1.042589
 C         2.527238         0.886594        -0.443661
 C         3.411476        -0.251106        -0.933008
 O         4.469418        -0.568515        -0.054315
 C         4.343420        -1.937281         0.220158
 C         2.798312        -2.380510         0.034421
 C         2.226280        -1.116804        -0.779525
 H        -0.276985        -0.128218        -1.351408
 H        -0.618405        -0.246619         0.427941
 H        -0.390858         1.304077        -0.339697
 H         2.539971         1.925872        -0.702521
 H         3.757974        -0.151512        -2.001157
 H         5.006523        -2.495107        -0.488017
 H         4.811639        -2.092489         1.202098
 H         2.523381        -3.202365        -0.564944
 H         2.357177        -2.604597         1.017447
 H         1.680150        -1.363962        -1.723939
