19
Iteration:  2235
 C        -0.017954         0.083382        -0.176600
 C         1.498897        -0.002899        -0.134526
 O         2.163615         0.408108         1.116955
 C         2.639510         0.975278        -0.164945
 C         3.505815        -0.055057        -0.905417
 O         4.639293        -0.760248        -0.411637
 C         3.954987        -1.775162         0.535487
 C         2.686590        -2.381118        -0.334461
 C         2.353949        -1.032781        -0.889820
 H        -0.366450        -0.964113        -0.178927
 H        -0.406880         0.385728         0.797879
 H        -0.400757         0.610499        -1.026106
 H         2.578683         2.105013        -0.330527
 H         3.774567         0.342700        -1.878746
 H         4.655223        -2.675938         0.663393
 H         3.616707        -1.196752         1.371906
 H         3.159103        -3.095786        -1.016360
 H         1.993828        -2.688794         0.350197
 H         1.959401        -1.258200        -1.917686
