19
Iteration:  2960
 C        -0.036025         0.335216        -0.333594
 C         1.446360         0.010127        -0.189264
 O         2.162503         0.346835         1.032252
 C         2.610948         0.891167        -0.195935
 C         3.413989        -0.185986        -0.944432
 O         4.600754        -0.866234        -0.604453
 C         4.249688        -1.695257         0.440173
 C         2.733341        -2.254992         0.207765
 C         2.260749        -1.157835        -0.737698
 H        -0.627712        -0.505415        -0.560974
 H        -0.556723         0.862764         0.519195
 H        -0.102944         0.852586        -1.269806
 H         2.628299         2.013590        -0.231204
 H         3.383782         0.288887        -1.953644
 H         4.967587        -2.488749         0.247015
 H         4.186703        -1.293789         1.495109
 H         2.743790        -3.210555        -0.289807
 H         2.078595        -2.278313         1.115844
 H         1.809159        -1.580265        -1.612498
