19
Iteration:  1428
 C        -0.058934         0.234672        -0.453291
 C         1.421318         0.077903        -0.223226
 O         1.842159         0.340508         1.172609
 C         2.529067         0.977764         0.049652
 C         3.499463        -0.070994        -0.770866
 O         4.668316        -0.796928        -0.374601
 C         4.366185        -2.146376        -0.004794
 C         2.840515        -2.128713         0.105439
 C         2.334435        -0.966464        -0.839929
 H        -0.417064        -0.712432        -0.023143
 H        -0.639394         1.052058        -0.168081
 H        -0.266951         0.038144        -1.508105
 H         2.654532         2.042030         0.019787
 H         3.642670         0.490239        -1.712398
 H         4.780087        -2.897860        -0.645395
 H         4.945284        -2.286915         0.906785
 H         2.242552        -3.117044        -0.103850
 H         2.598602        -2.023981         1.158543
 H         1.967964        -1.344440        -1.765227
