19
Iteration:  4518charge 0 multiplicity 1
 C        -0.171320         0.073414        -0.422669
 C         1.399138         0.042066        -0.107933
 O         1.974953         0.769500         0.986341
 C         2.577946         0.988759        -0.453110
 C         3.553109        -0.177902        -0.868686
 O         4.573237        -0.755292        -0.185354
 C         4.357879        -2.150984         0.031218
 C         2.851564        -2.168294         0.324712
 C         2.324735        -1.149666        -0.604254
 H        -0.339839         0.166031        -1.469643
 H        -0.594818        -0.900925        -0.225617
 H        -0.718699         0.764735         0.134276
 H         2.584744         2.060881        -0.586560
 H         3.790978        -0.109811        -2.014108
 H         4.599717        -2.618632        -0.916116
 H         4.775299        -2.729807         0.843306
 H         2.508824        -3.170804         0.005369
 H         2.856128        -1.866962         1.424535
 H         1.911995        -1.624219        -1.516289
