19
Iteration:  1291
 C        -0.002744         0.114199        -0.104952
 C         1.433432        -0.020851        -0.176857
 O         2.176820         0.622943         0.970087
 C         2.578433         0.984424        -0.321332
 C         3.563998        -0.118192        -0.859682
 O         4.398586        -0.571028         0.261091
 C         4.265217        -2.002069         0.043455
 C         2.723039        -2.490046        -0.314987
 C         2.244609        -1.119048        -0.895006
 H        -0.529236        -0.897481         0.025543
 H        -0.089326         0.943489         0.702303
 H        -0.393467         0.509611        -1.055254
 H         2.515735         2.036247        -0.501975
 H         4.087384         0.055522        -1.834626
 H         4.902157        -2.425536        -0.747520
 H         4.742028        -2.495252         0.877563
 H         2.804574        -3.309529        -1.025766
 H         2.130039        -2.617102         0.636569
 H         1.809907        -1.129484        -1.926970
