19
Iteration:  1661charge 0 multiplicity 1
 C         0.035834         0.460502        -0.318318
 C         1.369631        -0.101120        -0.182682
 O         2.058771         0.284930         1.044635
 C         2.472921         0.850797        -0.154159
 C         3.432474        -0.136998        -0.899898
 O         4.450571        -0.570903        -0.116468
 C         4.353880        -1.994711         0.119001
 C         2.859972        -2.248626         0.001335
 C         2.361158        -1.187945        -0.895713
 H        -0.684570        -0.279294         0.023070
 H         0.010467         1.322134         0.388232
 H        -0.130230         0.795229        -1.311606
 H         2.591669         1.935179        -0.195742
 H         3.733395         0.047049        -1.953626
 H         5.003480        -2.477221        -0.661843
 H         4.898647        -2.233628         1.125802
 H         2.398504        -3.242735        -0.169031
 H         2.353329        -2.008064         1.008965
 H         1.901843        -1.321892        -1.856577
