19
Iteration:  1168charge 0 multiplicity 1
 C         0.157586         0.610012        -0.519728
 C         1.361088        -0.073161        -0.104202
 O         1.885685         0.209026         1.196390
 C         2.550875         0.882752         0.048788
 C         3.240075        -0.082079        -0.945099
 O         4.642356        -0.664618        -0.551523
 C         4.401520        -1.824662         0.380350
 C         2.984215        -2.369397        -0.063424
 C         2.156778        -1.293224        -0.726235
 H        -0.744351        -0.109090        -0.354648
 H         0.070333         1.566451        -0.033398
 H         0.203589         0.801693        -1.630330
 H         2.498211         2.011007         0.009746
 H         3.250623         0.248751        -1.985215
 H         5.185379        -2.558102         0.185950
 H         4.312490        -1.465423         1.472494
 H         3.115260        -3.164960        -0.700983
 H         2.554191        -2.883173         0.773331
 H         1.735967        -1.700569        -1.619341
