19
Iteration:  1099charge 0 multiplicity 1
 C        -0.052512         0.181634        -0.213648
 C         1.474429         0.032096        -0.339252
 O         2.080696         0.176473         1.028133
 C         2.710356         0.917846         0.008603
 C         3.482210        -0.033982        -0.956559
 O         4.593294        -0.751599        -0.506918
 C         4.104405        -1.789218         0.512623
 C         2.702210        -2.208182         0.016943
 C         2.354382        -1.050644        -0.956492
 H        -0.371744        -0.815185         0.079984
 H        -0.283219         1.045649         0.509174
 H        -0.546842         0.385339        -1.184423
 H         2.943304         1.932273         0.267533
 H         3.629483         0.537262        -1.887412
 H         4.864050        -2.606224         0.332102
 H         4.086078        -1.284501         1.559699
 H         2.624157        -3.241282        -0.468751
 H         1.970244        -2.219621         0.772317
 H         1.862939        -1.464720        -1.920903
