19
Iteration:  2201
 C        -0.020259        -0.003147        -0.222239
 C         1.493907         0.095293        -0.182100
 O         2.252896         0.139712         1.057383
 C         2.731838         0.916956        -0.125221
 C         3.495890        -0.031438        -0.981625
 O         4.513065        -0.728623        -0.390692
 C         3.978536        -1.722998         0.586889
 C         2.676367        -2.120222        -0.149568
 C         2.314473        -0.992459        -0.991143
 H        -0.259660        -0.947118         0.290436
 H        -0.486228         0.889428         0.309476
 H        -0.474275        -0.127337        -1.191798
 H         2.812880         2.020746         0.026178
 H         3.799989         0.437813        -1.914119
 H         4.683906        -2.609109         0.469932
 H         3.955134        -1.495436         1.661760
 H         2.837447        -3.064079        -0.714718
 H         1.858222        -2.471210         0.419995
 H         1.839068        -1.247367        -1.971838
