19
Iteration:  2723charge 0 multiplicity 1
 C         0.046290         0.477996        -0.392866
 C         1.375576        -0.030134        -0.117565
 O         2.098517         0.247269         1.065644
 C         2.515559         0.924086        -0.142291
 C         3.390274        -0.198998        -0.937027
 O         4.609564        -0.662924        -0.401957
 C         4.315310        -1.951342         0.287639
 C         2.800051        -2.243739         0.098711
 C         2.262026        -1.160407        -0.804328
 H        -0.019025         1.034738        -1.301379
 H        -0.804686        -0.304690        -0.463005
 H        -0.162314         1.082316         0.504230
 H         2.426931         1.994320        -0.479916
 H         3.497157         0.191129        -1.936491
 H         5.085664        -2.686959        -0.039962
 H         4.530067        -1.770194         1.309984
 H         2.395923        -3.198719        -0.294696
 H         2.408222        -2.199186         1.070671
 H         1.718170        -1.639533        -1.619009
