19
Iteration:  3688charge 0 multiplicity 1
 C        -0.027143         0.281108        -0.275080
 C         1.475548        -0.019514        -0.126600
 O         2.203125         0.582170         0.984486
 C         2.614002         1.010948        -0.401078
 C         3.340011        -0.170567        -0.968388
 O         4.434809        -0.587002        -0.132472
 C         4.230450        -1.984509         0.358734
 C         2.937325        -2.487669        -0.064642
 C         2.243774        -1.228604        -0.757612
 H        -0.343279        -0.164473        -1.238619
 H        -0.570057        -0.216708         0.625307
 H        -0.432508         1.316693        -0.363235
 H         2.419573         2.100593        -0.437799
 H         3.546457         0.113781        -2.057851
 H         5.112052        -2.567097         0.062538
 H         4.343745        -1.821162         1.456000
 H         2.832613        -3.271860        -0.849085
 H         2.386996        -2.915500         0.820988
 H         1.596567        -1.631886        -1.552993
