19
Iteration:  3071
 C        -0.024698         0.361042        -0.127620
 C         1.445803         0.016933        -0.113756
 O         2.288953         0.673846         0.928088
 C         2.555031         0.938048        -0.510559
 C         3.406723        -0.267422        -0.958384
 O         4.460207        -0.676274        -0.195677
 C         4.143197        -1.902204         0.488280
 C         2.900029        -2.545717        -0.135033
 C         2.231432        -1.191012        -0.740705
 H        -0.498016        -0.589697        -0.315571
 H        -0.391731         0.530791         0.905801
 H        -0.335859         1.139813        -0.851782
 H         2.354932         1.953445        -0.780845
 H         3.790624        -0.154173        -2.029755
 H         5.135273        -2.432181         0.435107
 H         3.847078        -1.800323         1.591549
 H         2.987751        -3.182189        -1.049440
 H         2.394256        -3.259860         0.493351
 H         1.706597        -1.402397        -1.665832
