19
Iteration:  4952charge 0 multiplicity 1
 C        -0.133773         0.147485        -0.139842
 C         1.420405         0.059204        -0.333232
 O         2.116929         0.534031         0.808309
 C         2.539519         1.001896        -0.580857
 C         3.496556        -0.225206        -0.909601
 O         4.579678        -0.608994         0.050473
 C         4.278053        -2.052709         0.182034
 C         2.792955        -2.228320         0.289533
 C         2.260799        -1.152811        -0.782587
 H        -0.668236         0.445832        -1.094747
 H        -0.388853        -0.827195         0.087277
 H        -0.470081         0.832886         0.590343
 H         2.860929         2.026386        -0.839113
 H         3.994442        -0.039190        -1.914356
 H         4.685699        -2.639399        -0.700556
 H         4.856642        -2.333363         1.149324
 H         2.578769        -3.296487        -0.012873
 H         2.349190        -2.097437         1.258761
 H         2.062343        -1.784166        -1.690958
