19
Iteration:  1559charge 0 multiplicity 1
 C        -0.060192        -0.069359        -0.287976
 C         1.415114         0.138557        -0.171901
 O         2.171483         0.531312         1.019464
 C         2.653688         1.005233        -0.160659
 C         3.538203        -0.093120        -0.866370
 O         4.541685        -0.715327        -0.071900
 C         4.203932        -2.132340         0.117381
 C         2.669039        -2.162119        -0.026288
 C         2.261000        -0.985140        -0.933827
 H        -0.263963        -0.716279         0.638402
 H        -0.784290         0.748170        -0.368927
 H        -0.311212        -0.753529        -1.174508
 H         2.804290         2.099639        -0.082371
 H         3.880242         0.258341        -1.858334
 H         4.745880        -2.694788        -0.735704
 H         4.482292        -2.404909         1.100522
 H         2.529960        -3.184083        -0.455360
 H         2.255477        -2.105435         0.977309
 H         1.946279        -1.041527        -1.960748
