19
Iteration:  4081
 C        -0.031165         0.024613        -0.398651
 C         1.460152         0.062183        -0.132700
 O         2.257936         0.507618         1.038130
 C         2.599679         1.006364        -0.325455
 C         3.405624        -0.168295        -0.961002
 O         4.573199        -0.711939        -0.412756
 C         4.137492        -1.768908         0.477832
 C         2.730778        -2.357617         0.083113
 C         2.330335        -1.146382        -0.703650
 H        -0.194366        -0.387588        -1.372894
 H        -0.655980        -0.495287         0.378321
 H        -0.505638         1.017947        -0.422665
 H         2.486047         2.098744        -0.454405
 H         3.446231         0.108961        -2.028329
 H         4.866985        -2.621976         0.430842
 H         4.100451        -1.326738         1.562440
 H         2.755313        -3.296800        -0.520668
 H         1.930594        -2.547257         0.875670
 H         1.753451        -1.429199        -1.652326
