19
Iteration:  1854charge 0 multiplicity 1
 C        -0.051160         0.113875        -0.225763
 C         1.444844         0.092211        -0.228988
 O         2.088782         0.426552         1.047095
 C         2.572830         1.003304        -0.142639
 C         3.493478        -0.034920        -0.918583
 O         4.603305        -0.679560        -0.230617
 C         4.188982        -2.053549         0.363221
 C         2.758402        -2.306530        -0.143554
 C         2.312846        -1.066873        -0.908043
 H        -0.450630        -0.788344         0.242162
 H        -0.294845         0.888319         0.538690
 H        -0.547835         0.142915        -1.190198
 H         2.602573         2.056284        -0.263335
 H         3.751816         0.291931        -1.943315
 H         4.842619        -2.789055        -0.203178
 H         4.472795        -2.085412         1.363027
 H         2.699038        -3.256522        -0.646997
 H         2.132209        -2.431906         0.731109
 H         1.941910        -1.273288        -1.959879
