19
Iteration:  4920charge 0 multiplicity 1
 C        -0.066946         0.109520        -0.357859
 C         1.409013        -0.000700        -0.178335
 O         2.103739         0.789601         0.910439
 C         2.544911         1.024373        -0.436939
 C         3.424893        -0.244630        -0.891178
 O         4.517370        -0.648286        -0.040012
 C         4.348266        -2.074322         0.073660
 C         2.799245        -2.281998         0.310579
 C         2.259669        -1.269948        -0.723416
 H        -0.090809         0.258884        -1.495123
 H        -0.517513        -0.844575        -0.073817
 H        -0.537247         0.808319         0.273958
 H         2.819558         1.990734        -0.897145
 H         3.823536         0.183833        -1.863652
 H         4.704623        -2.677147        -0.804277
 H         5.042012        -2.418224         0.925093
 H         2.505492        -3.376468         0.134908
 H         2.643294        -2.028660         1.335738
 H         1.897309        -1.619062        -1.734194
