19
Iteration:  2616charge 0 multiplicity 1
 C        -0.094221         0.337230        -0.159059
 C         1.458637         0.052859        -0.108506
 O         2.237323         0.385052         1.065158
 C         2.673869         0.926039        -0.244200
 C         3.462001        -0.107371        -0.994355
 O         4.476517        -0.601690        -0.176130
 C         4.128712        -1.961340         0.406095
 C         2.838516        -2.439541        -0.257996
 C         2.205899        -1.178915        -0.852352
 H        -0.612247        -0.306499        -0.847128
 H        -0.665461         0.520323         0.725358
 H        -0.199781         1.299596        -0.683916
 H         2.695453         2.018801        -0.467914
 H         3.699897        -0.047162        -2.111148
 H         5.055800        -2.577294         0.139596
 H         4.067882        -1.829632         1.502938
 H         3.181490        -3.039383        -1.149817
 H         2.276660        -3.049661         0.396056
 H         1.862454        -1.398742        -1.915768
