19
Iteration:  4948
 C        -0.123086         0.138152        -0.189872
 C         1.418530         0.091943        -0.335295
 O         2.073393         0.556928         0.836653
 C         2.578288         0.995295        -0.587216
 C         3.487805        -0.237244        -0.929653
 O         4.559252        -0.612568         0.049235
 C         4.264560        -2.070403         0.172965
 C         2.826754        -2.203010         0.266720
 C         2.279431        -1.188348        -0.732315
 H        -0.658554         0.460950        -1.061065
 H        -0.380607        -0.878590         0.233997
 H        -0.330569         0.774418         0.730966
 H         2.777783         2.084364        -0.885179
 H         3.905332        -0.058384        -1.899856
 H         4.677018        -2.630644        -0.665130
 H         4.758681        -2.484635         1.036011
 H         2.637899        -3.184883        -0.056041
 H         2.506303        -2.134550         1.348036
 H         2.056186        -1.690964        -1.662545
