19
Iteration:  3236
 C         0.087430         0.552242        -0.466259
 C         1.394935        -0.002298        -0.156234
 O         2.132819         0.367493         1.066591
 C         2.559204         0.794495        -0.249839
 C         3.320057        -0.263279        -1.012495
 O         4.502713        -0.672885        -0.549608
 C         4.311987        -1.756763         0.508515
 C         2.933410        -2.301929         0.250870
 C         2.172422        -1.347458        -0.738657
 H        -0.228162         1.094561        -1.430376
 H        -0.646669        -0.261270        -0.620023
 H        -0.278276         1.077074         0.438391
 H         2.426661         1.881597        -0.270632
 H         3.487471         0.260733        -1.999160
 H         5.192288        -2.429699         0.228311
 H         4.359877        -1.469879         1.580047
 H         2.869681        -3.302644        -0.242390
 H         2.540072        -2.532491         1.219451
 H         1.618717        -1.867533        -1.535973
