19
Iteration:  3239
 C         0.080648         0.515227        -0.480843
 C         1.393493        -0.008747        -0.162212
 O         2.123712         0.362557         1.082705
 C         2.589659         0.820868        -0.239092
 C         3.329067        -0.254377        -1.010454
 O         4.505840        -0.673459        -0.558556
 C         4.320989        -1.746427         0.513302
 C         2.945194        -2.306060         0.266901
 C         2.129355        -1.340669        -0.757256
 H        -0.124494         1.152358        -1.391938
 H        -0.590199        -0.274348        -0.551598
 H        -0.293186         1.095252         0.337835
 H         2.498325         1.902898        -0.200153
 H         3.422947         0.172372        -1.997008
 H         5.055658        -2.497981         0.120642
 H         4.490575        -1.419800         1.562270
 H         2.777834        -3.273159        -0.234615
 H         2.443056        -2.464832         1.255750
 H         1.649289        -1.912118        -1.581114
