19
Iteration:  2254
 C        -0.076610         0.182692        -0.129488
 C         1.419653         0.037705        -0.133563
 O         2.109720         0.488591         1.034884
 C         2.586128         0.996193        -0.216052
 C         3.521827        -0.133352        -0.907926
 O         4.568494        -0.771539        -0.236970
 C         4.168536        -1.939815         0.441824
 C         2.892816        -2.331036        -0.306536
 C         2.240622        -1.085537        -0.933368
 H        -0.736085        -0.691462        -0.299052
 H        -0.352026         0.450466         0.956969
 H        -0.302639         0.925654        -0.915288
 H         2.591364         2.115142        -0.196858
 H         3.903701         0.274985        -1.851283
 H         4.957869        -2.625471         0.323891
 H         3.762282        -1.760364         1.449415
 H         3.200583        -3.001961        -1.180886
 H         2.220800        -2.957814         0.355431
 H         1.733759        -1.252712        -1.908839
