19
Iteration:  4380
 C         0.020182         0.073353        -0.354169
 C         1.484547        -0.008474        -0.116707
 O         2.187574         0.556544         0.993910
 C         2.562181         0.949628        -0.348243
 C         3.416000        -0.173945        -1.040834
 O         4.606837        -0.715392        -0.381988
 C         4.212505        -1.812469         0.459281
 C         2.655773        -2.255820         0.149924
 C         2.251930        -1.187541        -0.713403
 H        -0.141968         0.128568        -1.458810
 H        -0.509105        -0.784729         0.099464
 H        -0.392625         0.880296         0.242743
 H         2.535121         2.035680        -0.470360
 H         3.734276         0.162830        -2.028074
 H         4.920020        -2.641370         0.248826
 H         4.198894        -1.568885         1.508428
 H         2.866453        -3.099206        -0.534106
 H         2.115941        -2.453857         1.023845
 H         1.593834        -1.459246        -1.579089
