19
Iteration:    73charge 0 multiplicity 1
 C        -0.012037         0.430452        -0.544316
 C         1.415152        -0.017585        -0.079700
 O         2.204211         0.236183         1.302086
 C         2.524054         0.873364        -0.031687
 C         3.358873        -0.095242        -0.911940
 O         4.546335        -0.657186        -0.417803
 C         4.198704        -1.795353         0.305423
 C         2.830690        -2.423045        -0.134552
 C         2.304966        -1.114007        -0.804788
 H        -0.406680         1.354890        -0.153919
 H        -0.006976         0.427695        -1.661659
 H        -0.708383        -0.405231        -0.302242
 H         2.583204         1.937431        -0.114706
 H         3.511884         0.346194        -1.925800
 H         5.129317        -2.441484         0.243908
 H         4.058661        -1.602329         1.369675
 H         3.020416        -3.333524        -0.836967
 H         2.198928        -2.799630         0.761273
 H         2.030793        -1.385893        -1.821008
