19
Iteration:  4543
 C        -0.081622         0.231544        -0.375951
 C         1.359541         0.026426        -0.293169
 O         2.005881         0.603852         0.885139
 C         2.538866         0.959266        -0.325535
 C         3.398822        -0.199142        -0.863039
 O         4.672638        -0.693126        -0.141877
 C         4.370777        -2.079045         0.038359
 C         2.851278        -2.166418         0.420894
 C         2.287544        -1.213717        -0.669356
 H        -0.483161         0.516637        -1.371297
 H        -0.519273        -0.806801        -0.191981
 H        -0.469203         0.781221         0.496005
 H         2.478783         2.001481        -0.652622
 H         3.625349        -0.204916        -1.932307
 H         4.488597        -2.541414        -0.958309
 H         4.896228        -2.652045         0.773392
 H         2.418643        -3.165380         0.287717
 H         2.854316        -1.740829         1.358085
 H         2.015354        -1.784625        -1.605574
