19
Iteration:  4390
 C        -0.019708         0.134149        -0.309025
 C         1.442851        -0.009057        -0.084229
 O         2.181891         0.514230         0.990169
 C         2.580264         0.924287        -0.428668
 C         3.433081        -0.190809        -0.944288
 O         4.595526        -0.645758        -0.380237
 C         4.241658        -1.880164         0.469368
 C         2.740609        -2.296670         0.135330
 C         2.219358        -1.113031        -0.773124
 H        -0.205722         0.052041        -1.432784
 H        -0.592024        -0.795122         0.111310
 H        -0.478503         1.116385        -0.055191
 H         2.534073         2.008350        -0.572208
 H         3.603241         0.023701        -2.011152
 H         4.873882        -2.786205         0.289003
 H         4.466747        -1.463148         1.441454
 H         2.576545        -3.350377        -0.217504
 H         2.081004        -2.318998         0.953280
 H         1.914347        -1.529251        -1.773471
