19
Iteration:   603charge 0 multiplicity 1
 C        -0.004292         0.072684        -0.458102
 C         1.469617         0.093169        -0.199695
 O         2.193753         0.123011         1.157822
 C         2.684874         0.925078         0.076219
 C         3.502218        -0.039985        -0.972468
 O         4.586233        -0.785421        -0.513264
 C         4.161768        -1.800070         0.393177
 C         2.594722        -2.079326         0.050512
 C         2.219538        -0.981526        -0.905444
 H        -0.472291        -0.347216         0.526788
 H        -0.523501         1.059467        -0.713582
 H        -0.015954        -0.578807        -1.339169
 H         2.802586         2.028204         0.288329
 H         3.744168         0.506803        -1.902141
 H         4.848203        -2.647581         0.183678
 H         4.361095        -1.497191         1.514878
 H         2.410866        -3.018613        -0.425129
 H         1.832560        -2.212106         0.889264
 H         1.860272        -1.312373        -1.872653
