19
Iteration:  3998
 C        -0.055869         0.281426        -0.241718
 C         1.434856         0.029127        -0.199561
 O         2.138237         0.368773         0.956106
 C         2.609481         0.784040        -0.414011
 C         3.447756        -0.163325        -1.018054
 O         4.445788        -0.528268        -0.128074
 C         4.312426        -1.867335         0.314129
 C         2.811709        -2.258311         0.195525
 C         2.287963        -1.273609        -0.859941
 H        -0.389876         0.432653        -1.311062
 H        -0.601949        -0.603746         0.090493
 H        -0.248644         1.281416         0.182303
 H         2.542073         1.868298        -0.415799
 H         3.812405         0.042433        -2.080510
 H         5.002884        -2.579864        -0.241207
 H         4.518913        -1.760675         1.360502
 H         2.612297        -3.323854        -0.085214
 H         2.231184        -1.976458         1.054796
 H         1.859207        -1.541665        -1.839840
