19
Iteration:  4864
 C        -0.034590         0.324684        -0.514370
 C         1.401567        -0.007315        -0.283592
 O         1.986019         0.536206         1.003732
 C         2.544698         0.898091        -0.202612
 C         3.406706        -0.281826        -0.944649
 O         4.559005        -0.651194        -0.299627
 C         4.403578        -2.002996         0.149113
 C         2.895856        -2.177516         0.403569
 C         2.257739        -1.258895        -0.653957
 H        -0.670406        -0.228875        -1.269696
 H        -0.461524        -0.136654         0.344357
 H        -0.271077         1.370547        -0.590770
 H         2.459866         1.947518        -0.645439
 H         3.635759         0.011301        -2.018559
 H         4.686597        -2.680658        -0.651441
 H         4.991353        -2.138130         1.125877
 H         2.606189        -3.220227         0.501733
 H         2.781515        -1.729745         1.401589
 H         1.874805        -1.612752        -1.626792
