19
Iteration:  1421
 C        -0.050200         0.158638        -0.441717
 C         1.413034         0.158547        -0.263388
 O         1.829658         0.300464         1.101240
 C         2.588778         0.953264         0.106857
 C         3.534708        -0.051420        -0.803983
 O         4.706103        -0.752445        -0.385790
 C         4.304284        -2.128246        -0.001560
 C         2.809362        -2.161044         0.136477
 C         2.301274        -0.972910        -0.813551
 H        -0.353800        -0.676842         0.232651
 H        -0.517586         1.142698        -0.147195
 H        -0.278153        -0.049139        -1.471517
 H         2.620062         2.052278         0.182999
 H         3.698518         0.517761        -1.728886
 H         4.668358        -2.836154        -0.806996
 H         4.733016        -2.404128         1.044478
 H         2.308774        -3.106665         0.063058
 H         2.631231        -1.922536         1.241777
 H         1.963624        -1.298120        -1.810074
