19
Iteration:  3072charge 0 multiplicity 1
 C        -0.034179         0.363326        -0.116762
 C         1.449500         0.020083        -0.111709
 O         2.291720         0.675324         0.926265
 C         2.560089         0.936550        -0.516496
 C         3.405478        -0.261977        -0.955130
 O         4.456508        -0.676300        -0.192367
 C         4.136512        -1.909598         0.489452
 C         2.910012        -2.548945        -0.130509
 C         2.234362        -1.183849        -0.752141
 H        -0.509048        -0.595576        -0.323121
 H        -0.368565         0.509008         0.883082
 H        -0.359578         1.108714        -0.852708
 H         2.313562         1.941151        -0.810044
 H         3.842660        -0.163018        -1.985688
 H         5.122345        -2.449502         0.410342
 H         3.858006        -1.776423         1.577281
 H         2.989309        -3.205254        -1.047402
 H         2.370836        -3.251686         0.488059
 H         1.695437        -1.407789        -1.684213
