19
Iteration:  1631
 C        -0.090296         0.498417        -0.175172
 C         1.315130         0.051739        -0.225202
 O         2.032539         0.232569         0.918188
 C         2.531216         0.928066        -0.246326
 C         3.497574        -0.112921        -0.883680
 O         4.588222        -0.548391        -0.052024
 C         4.370484        -2.006289         0.190756
 C         2.862152        -2.368477        -0.020995
 C         2.309644        -1.235369        -0.887297
 H        -0.542493        -0.088831         0.611492
 H        -0.377120         1.533485        -0.103950
 H        -0.644091         0.200101        -1.159171
 H         2.755051         1.951613        -0.013138
 H         3.902176         0.044610        -1.905990
 H         4.835609        -2.466403        -0.650896
 H         4.835869        -2.249343         1.212737
 H         2.616627        -3.298665        -0.589217
 H         2.174565        -2.443631         0.905025
 H         1.823801        -1.522074        -1.908357
