19
Iteration:  4679
 C         0.084787         0.115062        -0.134186
 C         1.496403        -0.052127        -0.187559
 O         2.257921         0.421563         0.894554
 C         2.662126         0.875195        -0.347321
 C         3.472814        -0.172213        -1.021099
 O         4.502252        -0.708462        -0.332499
 C         4.008499        -1.561844         0.676816
 C         2.736001        -2.282882        -0.061915
 C         2.204722        -1.193231        -0.878110
 H        -0.455736        -0.190581        -1.100179
 H        -0.202741        -0.620688         0.698869
 H        -0.196901         1.216779         0.047117
 H         2.612469         1.926062        -0.504964
 H         3.743568        -0.120635        -2.033322
 H         4.824372        -2.304820         0.886250
 H         3.723992        -0.962081         1.582409
 H         3.050177        -3.041352        -0.763540
 H         1.919405        -2.713185         0.605462
 H         1.704100        -1.663535        -1.702097
