19
Iteration:   467
 C        -0.032771         0.106548        -0.008980
 C         1.411645        -0.007885        -0.276608
 O         2.061834         0.448718         1.011406
 C         2.647825         0.952569        -0.171437
 C         3.589013        -0.110442        -0.920431
 O         4.646879        -0.801658        -0.263418
 C         4.003879        -1.814363         0.477347
 C         2.756417        -2.293203        -0.267210
 C         2.352336        -1.025246        -1.033832
 H        -0.374973        -0.828072         0.537057
 H        -0.286677         0.854675         0.745737
 H        -0.827313         0.155485        -0.866160
 H         2.849825         2.034868        -0.330027
 H         4.004936         0.452426        -1.769804
 H         4.806871        -2.637309         0.791498
 H         3.722186        -1.429044         1.438952
 H         3.034257        -3.043415        -1.071518
 H         1.888821        -2.645112         0.268397
 H         1.971021        -1.293747        -2.026979
