19
Iteration:  3871charge 0 multiplicity 1
 C         0.017271         0.257290        -0.479660
 C         1.416741        -0.036346        -0.121640
 O         2.048921         0.459725         1.031666
 C         2.556100         0.957440        -0.224737
 C         3.415345        -0.192704        -0.948009
 O         4.540580        -0.571561        -0.184865
 C         4.339745        -1.995880         0.088943
 C         2.852495        -2.258375         0.258931
 C         2.183199        -1.211099        -0.746871
 H        -0.178740        -0.365818        -1.372430
 H        -0.694977         0.005238         0.284457
 H        -0.134235         1.323117        -0.725691
 H         2.848964         2.030320        -0.466487
 H         3.561061         0.182820        -1.947000
 H         4.683005        -2.531521        -0.800455
 H         4.994659        -2.336527         0.948999
 H         2.713879        -3.345430         0.218822
 H         2.503931        -1.977248         1.289279
 H         1.757481        -1.763669        -1.615802
