19
Iteration:  3069
 C        -0.005724         0.354877        -0.146571
 C         1.440427         0.013245        -0.116067
 O         2.282337         0.670164         0.929244
 C         2.543757         0.938367        -0.493639
 C         3.409754        -0.275406        -0.971766
 O         4.469319        -0.676755        -0.200166
 C         4.158238        -1.889662         0.488810
 C         2.879520        -2.536013        -0.148305
 C         2.223576        -1.208158        -0.715752
 H        -0.498800        -0.591663        -0.323126
 H        -0.426385         0.588975         0.932413
 H        -0.283110         1.191109        -0.838598
 H         2.451876         1.996921        -0.737985
 H         3.671584        -0.140631        -2.093116
 H         5.135708        -2.405392         0.488290
 H         3.843701        -1.830606         1.590348
 H         3.007790        -3.124815        -1.052468
 H         2.421155        -3.265897         0.530997
 H         1.722712        -1.400724        -1.645540
