19
Iteration:  2146charge 0 multiplicity 1
 C        -0.031031         0.406689        -0.266648
 C         1.345627        -0.003197        -0.158804
 O         2.025194         0.357597         1.036276
 C         2.475610         0.899630        -0.112398
 C         3.398197        -0.094725        -0.870366
 O         4.628625        -0.620856        -0.192621
 C         4.357548        -1.945616         0.247643
 C         2.872088        -2.415137        -0.133412
 C         2.288458        -1.191303        -0.878065
 H        -0.667961         0.047058         0.542560
 H        -0.069947         1.545263        -0.311232
 H        -0.386305         0.191296        -1.268297
 H         2.473744         1.990384        -0.118770
 H         3.645734         0.324861        -1.840448
 H         5.111869        -2.689318        -0.354375
 H         4.599747        -2.083717         1.338769
 H         2.887023        -3.162015        -0.964016
 H         2.382908        -2.787021         0.753990
 H         1.943800        -1.372673        -1.926366
