19
Iteration:  1698charge 0 multiplicity 1
 C        -0.067214         0.151622        -0.499109
 C         1.403202         0.107836        -0.228865
 O         2.088322         0.369182         1.100657
 C         2.622581         0.952390        -0.042305
 C         3.418359        -0.109499        -0.807040
 O         4.589855        -0.662469        -0.233362
 C         4.342949        -2.050086        -0.007115
 C         2.673169        -2.225482         0.096226
 C         2.331895        -1.037866        -0.672891
 H        -0.489536        -0.856414        -0.540947
 H        -0.662694         0.730125         0.173556
 H        -0.280070         0.596263        -1.570099
 H         2.839421         2.023646         0.103172
 H         3.500589         0.285192        -1.848218
 H         4.541193        -2.582417        -0.940898
 H         4.930733        -2.445540         0.844081
 H         2.486368        -3.231463        -0.349987
 H         2.481400        -2.098765         1.155838
 H         1.966797        -1.519613        -1.680434
