19
Iteration:   203charge 0 multiplicity 1
 C         0.024130         0.227900        -0.255878
 C         1.496518        -0.002404         0.032933
 O         2.284315         0.421941         1.116813
 C         2.515349         0.949914        -0.254116
 C         3.443167        -0.107101        -1.036629
 O         4.440081        -0.625215        -0.064084
 C         4.059155        -1.962430         0.446554
 C         2.923205        -2.388450        -0.473550
 C         2.225975        -1.078415        -0.842899
 H        -0.385594         1.121638         0.271678
 H        -0.026072         0.366700        -1.429789
 H        -0.634708        -0.743053        -0.057228
 H         2.326639         2.002504        -0.311412
 H         3.813549         0.136124        -2.038409
 H         4.998197        -2.552438         0.441746
 H         3.679265        -1.777174         1.476308
 H         3.451999        -2.719431        -1.481589
 H         2.220727        -3.291880        -0.083210
 H         1.582731        -1.284562        -1.734319
