19
Iteration:  3772charge 0 multiplicity 1
 C        -0.076542         0.035655        -0.160157
 C         1.492273         0.062141        -0.197513
 O         2.303985         0.292315         1.019525
 C         2.685378         0.853653        -0.364015
 C         3.480974        -0.149102        -1.128035
 O         4.568648        -0.676930        -0.345461
 C         4.019490        -1.671875         0.627010
 C         2.724058        -2.205420         0.048003
 C         2.260253        -1.085126        -0.960299
 H        -0.406473         0.188851        -1.213485
 H        -0.471650        -0.882736         0.168809
 H        -0.517519         0.817801         0.495201
 H         2.725794         1.918936        -0.141553
 H         3.759801         0.195173        -2.136971
 H         4.722448        -2.515759         0.809845
 H         3.844742        -1.198507         1.627018
 H         2.612456        -3.212500        -0.437160
 H         1.917402        -2.143903         0.797872
 H         1.697545        -1.424516        -1.867195
