19
Iteration:  4993
 C         0.074568         0.193313        -0.237486
 C         1.461092         0.037321        -0.214829
 O         2.173662         0.452665         0.932228
 C         2.563410         0.914493        -0.441101
 C         3.413860        -0.192755        -1.024920
 O         4.460530        -0.600485        -0.164575
 C         4.259320        -1.851982         0.391029
 C         2.742582        -2.261499         0.213533
 C         2.238917        -1.237506        -0.876191
 H        -0.072734        -0.130674        -1.299862
 H        -0.302217        -0.607938         0.394193
 H        -0.394399         1.127913         0.036509
 H         2.684607         2.044917        -0.392104
 H         3.766067        -0.101278        -2.040481
 H         4.869135        -2.608092        -0.086621
 H         4.586998        -1.867444         1.433160
 H         2.686748        -3.239807        -0.200352
 H         2.188332        -2.209913         1.163896
 H         1.656571        -1.581089        -1.736661
