19
Iteration:  1426
 C        -0.055961         0.214263        -0.442226
 C         1.422020         0.103271        -0.239406
 O         1.836273         0.327660         1.150330
 C         2.542015         0.966872         0.067884
 C         3.510957        -0.069422        -0.782444
 O         4.680975        -0.785122        -0.377400
 C         4.348411        -2.141043         0.001291
 C         2.836598        -2.138604         0.114977
 C         2.326585        -0.956192        -0.830665
 H        -0.357626        -0.723311         0.053129
 H        -0.624189         1.100885        -0.177147
 H        -0.275356        -0.003379        -1.544189
 H         2.639851         2.050906         0.063912
 H         3.632169         0.511398        -1.716606
 H         4.742633        -2.897563        -0.678016
 H         4.856756        -2.316777         0.895165
 H         2.240786        -3.093442        -0.001428
 H         2.626605        -2.053163         1.157514
 H         1.936118        -1.335333        -1.810218
