19
Iteration:  1971charge 0 multiplicity 1
 C         0.032821         0.401842        -0.298175
 C         1.413212         0.053425        -0.103681
 O         2.065602         0.307489         1.092160
 C         2.552770         0.962885        -0.153431
 C         3.399445        -0.142019        -0.903372
 O         4.498117        -0.538807        -0.202279
 C         4.302759        -1.951824         0.272456
 C         2.910697        -2.472393        -0.269264
 C         2.241964        -1.163933        -0.805349
 H        -0.644432        -0.193060         0.309648
 H        -0.183941         1.410397         0.052533
 H        -0.342183         0.133225        -1.311342
 H         2.568076         2.017518         0.018140
 H         3.714139         0.171184        -1.946650
 H         5.152348        -2.631422         0.060584
 H         4.073025        -1.874274         1.374067
 H         2.922035        -3.218403        -1.170261
 H         2.469328        -3.084906         0.565665
 H         1.868718        -1.610193        -1.776594
