19
Iteration:  1725
 C         0.030438         0.091555        -0.442345
 C         1.441477         0.069965        -0.165008
 O         1.854882         0.492811         1.137986
 C         2.533488         0.995935        -0.042913
 C         3.592226        -0.075690        -0.804299
 O         4.652044        -0.793190        -0.249941
 C         4.253359        -2.171864        -0.065509
 C         2.777973        -2.144312         0.081708
 C         2.332468        -0.981473        -0.822473
 H        -0.223688        -0.991675        -0.217706
 H        -0.680733         0.700013         0.223985
 H        -0.338240         0.350210        -1.409817
 H         2.378001         2.057925        -0.129922
 H         3.899858         0.533131        -1.653582
 H         4.383853        -2.707141        -1.013237
 H         4.812692        -2.659331         0.745843
 H         2.546375        -3.194474         0.169171
 H         2.697652        -1.726013         1.107289
 H         1.738759        -1.291862        -1.616787
