19
Iteration:  3263
 C        -0.029810         0.349165        -0.508969
 C         1.369133         0.013561        -0.118029
 O         2.072910         0.306718         1.058610
 C         2.642422         0.821501        -0.181272
 C         3.403378        -0.229805        -0.968218
 O         4.628878        -0.776846        -0.631988
 C         4.332274        -1.778397         0.380426
 C         2.762210        -2.136710         0.304720
 C         2.256006        -1.166490        -0.669659
 H        -0.150641         0.742302        -1.495478
 H        -0.689523        -0.554978        -0.353635
 H        -0.479823         1.149663         0.075536
 H         2.669731         1.910064        -0.085062
 H         3.462599         0.221268        -1.943882
 H         5.063394        -2.572787         0.194273
 H         4.283471        -1.371961         1.398112
 H         2.474407        -3.154783        -0.051378
 H         2.420986        -2.053410         1.381201
 H         1.757654        -1.607183        -1.546273
