19
Iteration:  3570charge 0 multiplicity 1
 C         0.011433         0.161270        -0.577464
 C         1.411956         0.030650        -0.201054
 O         2.083877         0.550694         1.083543
 C         2.588760         1.017576        -0.186451
 C         3.343860        -0.149667        -0.891019
 O         4.587687        -0.663042        -0.367560
 C         4.334504        -2.038522         0.044280
 C         2.824250        -2.283399         0.361008
 C         2.233809        -1.187933        -0.606243
 H         0.035343         0.234714        -1.630656
 H        -0.569512        -0.731335        -0.232732
 H        -0.502390         1.072881        -0.270656
 H         2.443001         2.095998        -0.204083
 H         3.386266         0.208218        -1.905262
 H         4.834494        -2.816808        -0.541509
 H         4.721263        -2.129844         1.087747
 H         2.516618        -3.374168         0.202585
 H         2.593699        -2.038125         1.426095
 H         1.678829        -1.645406        -1.424745
