19
Iteration:  2677
 C        -0.062198         0.154532        -0.328489
 C         1.441060         0.148179        -0.272493
 O         1.984355         0.267068         1.073455
 C         2.714348         0.987490        -0.034242
 C         3.537259        -0.075715        -0.860465
 O         4.646877        -0.863100        -0.507782
 C         4.271611        -1.976910         0.271994
 C         2.698088        -2.097214         0.092877
 C         2.205405        -1.030792        -0.846711
 H        -0.421760        -0.461974        -1.159606
 H        -0.421169        -0.448152         0.613645
 H        -0.374990         1.203918        -0.378681
 H         2.819191         2.023389         0.195330
 H         3.561347         0.276576        -1.868349
 H         4.913098        -2.812811         0.038160
 H         4.418590        -1.839576         1.344344
 H         2.332685        -3.096687        -0.097891
 H         2.322605        -1.858161         1.131924
 H         1.948960        -1.100892        -1.872479
