19
Iteration:  1385
 C        -0.036584         0.161996        -0.393989
 C         1.412763         0.096477        -0.240320
 O         2.067276         0.200441         1.104436
 C         2.592565         0.896961        -0.023484
 C         3.515270        -0.033608        -0.869294
 O         4.586821        -0.654535        -0.158359
 C         4.216190        -2.066653        -0.014521
 C         2.751250        -2.099879         0.121877
 C         2.301384        -1.002473        -0.899274
 H        -0.585083        -0.322890         0.413609
 H        -0.398536         1.143872        -0.476692
 H        -0.397867        -0.351784        -1.284389
 H         2.605630         1.975181         0.034553
 H         3.898792         0.415137        -1.797773
 H         4.642955        -2.620213        -0.889815
 H         4.785149        -2.517786         0.866131
 H         2.339258        -3.157481        -0.116801
 H         2.441337        -1.741823         1.107985
 H         2.032402        -1.321783        -1.879635
