19
Iteration:  4106
 C        -0.033991         0.198707        -0.284563
 C         1.400084         0.002610        -0.135342
 O         2.124626         0.490011         1.010377
 C         2.579605         0.882442        -0.316079
 C         3.477040        -0.235357        -0.997926
 O         4.620829        -0.789593        -0.439485
 C         4.171804        -1.669475         0.590800
 C         2.882867        -2.279544         0.048635
 C         2.216229        -1.202170        -0.826722
 H        -0.335227         0.148108        -1.370172
 H        -0.646239        -0.530892         0.281756
 H        -0.418479         1.175380         0.057569
 H         2.622743         1.965646        -0.546718
 H         3.748854         0.251913        -1.946517
 H         4.852337        -2.538625         0.722332
 H         4.000592        -1.081935         1.520326
 H         3.154846        -3.185877        -0.608778
 H         2.134847        -2.666438         0.739998
 H         1.504999        -1.443622        -1.657501
