19
Iteration:   939
 C        -0.060096         0.125756        -0.249425
 C         1.435205         0.018254        -0.127806
 O         2.331494         0.325198         1.043571
 C         2.608736         0.992148        -0.151965
 C         3.480692        -0.076265        -0.928787
 O         4.554719        -0.678524        -0.238873
 C         4.137597        -1.944483         0.274357
 C         2.647865        -2.249195        -0.091607
 C         2.264217        -1.042511        -0.897474
 H        -0.608269        -0.676857         0.234456
 H        -0.522059         1.103344        -0.073871
 H        -0.271931        -0.058947        -1.296519
 H         2.527898         2.064306        -0.221012
 H         3.722536         0.285954        -1.945695
 H         4.903172        -2.763746        -0.090955
 H         4.187288        -1.915075         1.350356
 H         2.432019        -3.251186        -0.509776
 H         2.163281        -2.061129         0.924359
 H         1.989051        -1.287159        -1.893328
