19
Iteration:  2255charge 0 multiplicity 1
 C        -0.080818         0.190433        -0.128964
 C         1.419905         0.041407        -0.134069
 O         2.109480         0.486847         1.035430
 C         2.581347         1.006178        -0.223022
 C         3.515148        -0.142340        -0.906295
 O         4.570319        -0.766118        -0.227479
 C         4.179210        -1.943867         0.444866
 C         2.891937        -2.334953        -0.314721
 C         2.234880        -1.091932        -0.935753
 H        -0.739859        -0.683403        -0.295514
 H        -0.352714         0.451787         0.944172
 H        -0.291762         0.936428        -0.894103
 H         2.595656         2.140773        -0.181349
 H         3.914185         0.256097        -1.837202
 H         4.963729        -2.662365         0.289270
 H         3.797415        -1.777965         1.439000
 H         3.223544        -2.998950        -1.177965
 H         2.258055        -2.922118         0.354776
 H         1.721604        -1.299240        -1.913819
