19
Iteration:  1819
 C        -0.092457         0.414103        -0.314256
 C         1.359142        -0.044083        -0.153632
 O         2.107090         0.359730         1.027358
 C         2.522239         0.944880        -0.193589
 C         3.443767        -0.123699        -0.886223
 O         4.538881        -0.537856        -0.101696
 C         4.355914        -2.080996         0.177583
 C         2.916378        -2.405896        -0.099921
 C         2.252745        -1.172710        -0.776162
 H        -0.704555        -0.097347         0.379749
 H        -0.192050         1.447763        -0.117538
 H        -0.557781         0.420078        -1.331580
 H         2.529362         2.069056        -0.206023
 H         3.780481         0.278221        -1.880553
 H         4.959257        -2.518584        -0.678537
 H         4.674026        -2.371437         1.176406
 H         2.827268        -3.260023        -0.814285
 H         2.266282        -2.528918         0.762490
 H         1.852454        -1.299598        -1.856467
