19
Iteration:   439charge 0 multiplicity 1
 C         0.007496         0.011804        -0.123501
 C         1.444618         0.158824        -0.328986
 O         2.133942         0.256035         1.007519
 C         2.638039         1.037264        -0.133204
 C         3.559883        -0.062443        -0.905127
 O         4.599740        -0.824875        -0.349243
 C         4.029611        -1.884526         0.461057
 C         2.668898        -2.197972        -0.107585
 C         2.345866        -0.931362        -0.962223
 H        -0.066853        -0.579798         0.797111
 H        -0.754422         0.798746         0.000524
 H        -0.350221        -0.652407        -0.868689
 H         2.847881         2.093047        -0.031331
 H         3.904653         0.393292        -1.850079
 H         4.748865        -2.644630         0.502814
 H         3.869217        -1.479589         1.494980
 H         2.633274        -3.075980        -0.777140
 H         1.858230        -2.384611         0.632299
 H         2.106334        -1.276414        -1.969776
