19
Iteration:  1084charge 0 multiplicity 1
 C         0.001273         0.046000        -0.138425
 C         1.458516         0.108017        -0.330580
 O         2.145324         0.267508         1.027037
 C         2.619716         0.970912        -0.090842
 C         3.548413        -0.072528        -0.902398
 O         4.698470        -0.712186        -0.363198
 C         4.053386        -1.881261         0.408065
 C         2.613963        -2.168889        -0.031935
 C         2.244736        -1.060985        -1.031875
 H        -0.279962        -0.778290         0.507048
 H        -0.335771         0.851361         0.451348
 H        -0.587974         0.043919        -1.041631
 H         2.689937         2.080987        -0.097135
 H         3.870500         0.310389        -1.886944
 H         4.724467        -2.741351         0.403022
 H         4.091590        -1.641939         1.425681
 H         2.647057        -3.139781        -0.577214
 H         1.937644        -2.174003         0.935985
 H         2.131547        -1.322640        -2.058260
