19
Iteration:   848
 C         0.101347         0.480450        -0.424138
 C         1.425844        -0.037085        -0.052996
 O         2.102844         0.287216         1.154224
 C         2.618568         0.821514        -0.081915
 C         3.246140        -0.131329        -0.924195
 O         4.513379        -0.615442        -0.446988
 C         4.240019        -1.749107         0.412581
 C         2.961119        -2.493297        -0.100345
 C         2.138061        -1.219940        -0.823750
 H        -0.767737        -0.220002        -0.469258
 H         0.014377         1.450292         0.158467
 H         0.282932         0.824662        -1.500500
 H         2.698845         1.934661        -0.093142
 H         3.431047         0.297114        -1.929547
 H         5.145228        -2.319401         0.349180
 H         4.067850        -1.493233         1.521316
 H         3.227247        -3.146340        -0.994359
 H         2.522620        -3.005572         0.677879
 H         1.601866        -1.463903        -1.815425
