19
Iteration:  3603
 C        -0.093039         0.103143        -0.341197
 C         1.421023         0.018284        -0.237306
 O         1.929312         0.480734         0.932097
 C         2.602171         0.973270        -0.294483
 C         3.501850        -0.173766        -0.878985
 O         4.748450        -0.732668        -0.165069
 C         4.280442        -2.099729        -0.007812
 C         2.787059        -2.042458         0.361085
 C         2.233182        -1.078973        -0.756862
 H        -0.365165         0.269595        -1.362424
 H        -0.621410        -0.860095        -0.090337
 H        -0.490242         0.916041         0.266774
 H         2.666511         2.083103        -0.199402
 H         3.790511         0.136840        -1.863959
 H         4.524264        -2.582838        -0.971566
 H         4.869056        -2.504332         0.837156
 H         2.256158        -3.058025         0.498149
 H         2.822424        -1.427993         1.284569
 H         1.776365        -1.665454        -1.527314
