19
Iteration:  4488charge 0 multiplicity 1
 C        -0.000794         0.088616        -0.411406
 C         1.477416         0.046043        -0.196596
 O         2.082409         0.638755         0.965284
 C         2.585748         1.017919        -0.405254
 C         3.465760        -0.123007        -0.846687
 O         4.541996        -0.609673        -0.195614
 C         4.388413        -2.029862         0.083978
 C         2.704459        -2.265893         0.323734
 C         2.160908        -1.283117        -0.642315
 H        -0.362455        -0.177162        -1.460460
 H        -0.416416        -0.762610         0.298917
 H        -0.445763         1.081512        -0.296173
 H         2.698703         2.076980        -0.555629
 H         3.730964        -0.185163        -1.887423
 H         4.700696        -2.509581        -0.880756
 H         4.857187        -2.549072         0.894277
 H         2.402157        -3.326747         0.209384
 H         2.673919        -2.178759         1.356733
 H         1.649904        -1.655256        -1.576213
