19
Iteration:   602
 C        -0.013460         0.069280        -0.452668
 C         1.480326         0.088468        -0.199757
 O         2.182226         0.128751         1.147796
 C         2.695704         0.920684         0.077646
 C         3.501410        -0.041084        -0.967420
 O         4.590313        -0.791071        -0.511101
 C         4.163390        -1.792852         0.389195
 C         2.589238        -2.069990         0.047725
 C         2.226091        -0.984017        -0.901242
 H        -0.468845        -0.348556         0.537637
 H        -0.545406         1.068057        -0.693396
 H        -0.042152        -0.580999        -1.348689
 H         2.798936         2.016830         0.299740
 H         3.716758         0.520722        -1.886968
 H         4.877158        -2.674626         0.175773
 H         4.347446        -1.501434         1.481206
 H         2.399540        -3.024889        -0.429485
 H         1.833804        -2.197589         0.876317
 H         1.879130        -1.303898        -1.847618
