19
Iteration:  2451
 C        -0.071413         0.600958        -0.353953
 C         1.361329        -0.068687        -0.286169
 O         2.047369         0.277021         1.053083
 C         2.542451         0.793285        -0.193796
 C         3.423829        -0.233260        -0.964609
 O         4.577746        -0.556339        -0.298592
 C         4.321066        -1.968291         0.234439
 C         2.835592        -2.248586         0.209652
 C         2.327986        -1.235528        -0.774194
 H         0.162806         1.385118        -1.039086
 H        -0.970486         0.094027        -0.757010
 H        -0.272933         0.961972         0.607600
 H         2.600268         1.858032        -0.202811
 H         3.566067         0.012724        -2.055675
 H         4.953958        -2.669115        -0.347055
 H         4.749615        -2.058085         1.211542
 H         2.779210        -3.281265        -0.234488
 H         2.501717        -2.090971         1.197783
 H         1.896805        -1.757368        -1.631049
