19
Iteration:   432charge 0 multiplicity 1
 C        -0.044942         0.005487        -0.199105
 C         1.468254         0.142980        -0.269645
 O         2.212767         0.251236         1.056063
 C         2.661487         0.978035        -0.134769
 C         3.530847        -0.063103        -0.936239
 O         4.621984        -0.783945        -0.323523
 C         4.033638        -1.862753         0.417546
 C         2.619298        -2.173025        -0.084711
 C         2.307244        -0.959185        -0.960193
 H        -0.089111        -0.498312         0.739016
 H        -0.687968         0.859687        -0.256506
 H        -0.298410        -0.728465        -0.972039
 H         2.648197         2.084602         0.053648
 H         4.036753         0.382823        -1.809849
 H         4.809978        -2.639050         0.365274
 H         3.819142        -1.478452         1.428917
 H         2.631086        -3.057734        -0.656330
 H         1.812569        -2.298359         0.680361
 H         1.923481        -1.256106        -2.015705
