19
Iteration:  3862
 C        -0.039854         0.290843        -0.477035
 C         1.414863         0.020068        -0.150213
 O         2.046393         0.432774         1.046376
 C         2.571712         0.971117        -0.259135
 C         3.375461        -0.176539        -0.959738
 O         4.521664        -0.624797        -0.232259
 C         4.368876        -1.957766         0.141910
 C         2.857582        -2.339050         0.265311
 C         2.294495        -1.180475        -0.686520
 H        -0.233086        -0.266468        -1.380311
 H        -0.822722        -0.016874         0.228975
 H        -0.171066         1.352929        -0.657952
 H         2.401763         2.098893        -0.390365
 H         3.698871        -0.152730        -2.022964
 H         4.915549        -2.493040        -0.707838
 H         5.016570        -2.233109         1.051593
 H         2.480210        -3.263647        -0.159764
 H         2.635845        -2.235394         1.375163
 H         1.731828        -1.581834        -1.571491
