19
Iteration:  4256
 C        -0.065122         0.154323        -0.289663
 C         1.416365        -0.022281        -0.147557
 O         2.119068         0.542735         0.934109
 C         2.641752         0.987564        -0.292860
 C         3.445378        -0.160211        -0.949669
 O         4.587873        -0.724436        -0.368735
 C         4.177380        -1.828533         0.451950
 C         2.812088        -2.355552         0.083963
 C         2.265919        -1.155927        -0.798647
 H        -0.600852        -0.302822        -1.082967
 H        -0.505098        -0.366296         0.593035
 H        -0.211345         1.211539        -0.353870
 H         2.691435         2.074469        -0.436040
 H         3.741659         0.032233        -1.975973
 H         4.969590        -2.543282         0.458932
 H         4.190179        -1.499280         1.507179
 H         2.884177        -3.164266        -0.578725
 H         2.202773        -2.520837         0.971635
 H         1.866655        -1.771535        -1.569673
