19
Iteration:  4917charge 0 multiplicity 1
 C        -0.069802         0.093132        -0.388007
 C         1.402731         0.025725        -0.155239
 O         2.127920         0.789423         0.933013
 C         2.535970         1.015330        -0.450280
 C         3.401873        -0.211708        -0.878621
 O         4.535541        -0.650264        -0.052902
 C         4.334092        -2.086740         0.083373
 C         2.821460        -2.285742         0.308112
 C         2.261810        -1.297088        -0.720097
 H        -0.161346         0.216214        -1.470986
 H        -0.532615        -0.796988        -0.193561
 H        -0.547574         0.918452         0.157113
 H         2.734802         2.067316        -0.897225
 H         3.783789         0.136082        -1.874906
 H         4.639648        -2.640725        -0.858976
 H         4.934874        -2.493448         0.946918
 H         2.584965        -3.294629         0.117281
 H         2.653513        -2.046311         1.373053
 H         1.896340        -1.642260        -1.683465
