19
Iteration:  4722charge 0 multiplicity 1
 C        -0.109218         0.181875        -0.026005
 C         1.441347        -0.053269        -0.286789
 O         2.233844         0.479365         0.789423
 C         2.605897         0.968327        -0.508609
 C         3.461246        -0.244769        -1.003662
 O         4.530486        -0.624272        -0.139651
 C         4.191633        -1.841259         0.577992
 C         2.777325        -2.259628         0.034149
 C         2.265153        -1.213035        -0.860729
 H        -0.538098         0.599468        -1.022864
 H        -0.657417        -0.753941         0.243283
 H        -0.223978         1.073563         0.720885
 H         2.535402         1.998852        -0.826915
 H         3.893993         0.042665        -1.936436
 H         4.940526        -2.605825         0.324857
 H         4.140660        -1.746888         1.702837
 H         2.879842        -3.174596        -0.509481
 H         2.148506        -2.507363         0.914871
 H         1.918243        -1.393175        -1.854161
