19
Iteration:   341
 C        -0.172497         0.551895        -0.268944
 C         1.353589         0.044187        -0.243569
 O         1.865057         0.356605         1.141336
 C         2.493847         0.897533        -0.025455
 C         3.507441        -0.106758        -0.884539
 O         4.763956        -0.805338        -0.496374
 C         4.347046        -1.932441         0.444879
 C         2.963172        -2.449872        -0.118119
 C         2.316526        -1.178411        -0.919532
 H        -0.288301         1.203566         0.568641
 H        -0.365537         1.153012        -1.122557
 H        -0.914141        -0.139289        -0.236109
 H         2.508315         1.969533        -0.011547
 H         3.628259         0.472175        -1.816172
 H         5.086850        -2.651567         0.457682
 H         4.145901        -1.438085         1.432540
 H         3.145696        -3.217362        -0.864206
 H         2.333356        -2.942462         0.609484
 H         1.811059        -1.484546        -1.880108
