19
Iteration:  4702
 C        -0.029862         0.175935        -0.071539
 C         1.434928         0.004087        -0.222530
 O         2.337983         0.396050         0.881387
 C         2.528977         0.893633        -0.483964
 C         3.481266        -0.162449        -1.115767
 O         4.498314        -0.602476        -0.189519
 C         4.062970        -1.755108         0.642860
 C         2.777705        -2.354594         0.058397
 C         2.292113        -1.166696        -0.973061
 H        -0.581095         0.283162        -1.061117
 H        -0.323209        -0.771702         0.519602
 H        -0.159517         1.162571         0.440983
 H         2.630951         1.976487        -0.522986
 H         3.980521        -0.123464        -2.077722
 H         4.797542        -2.621951         0.754558
 H         3.839175        -1.226175         1.572367
 H         2.902882        -3.343403        -0.448089
 H         2.020821        -2.456460         0.905612
 H         1.803534        -1.520475        -1.898843
