19
Iteration:  3991charge 0 multiplicity 1
 C        -0.071540         0.262005        -0.310230
 C         1.378765         0.005458        -0.189676
 O         2.206572         0.390183         0.981899
 C         2.581295         0.855800        -0.367999
 C         3.443128        -0.203450        -1.055865
 O         4.483543        -0.520942        -0.116390
 C         4.307116        -1.863282         0.296697
 C         2.773469        -2.251400         0.186062
 C         2.268936        -1.288789        -0.823830
 H        -0.224796         0.401374        -1.401794
 H        -0.653660        -0.581149         0.047509
 H        -0.459695         1.164263         0.227197
 H         2.788380         1.940927        -0.616477
 H         3.961104         0.182550        -1.934653
 H         4.903897        -2.564956        -0.362158
 H         4.732063        -1.847958         1.347978
 H         2.727635        -3.264307        -0.149775
 H         2.169349        -2.222228         1.131501
 H         1.702005        -1.639370        -1.678710
