19
Iteration:  3025charge 0 multiplicity 1
 C        -0.065331         0.357610        -0.280391
 C         1.393032         0.017590        -0.205254
 O         2.217706         0.393072         1.058454
 C         2.594158         0.929693        -0.239928
 C         3.391449        -0.166804        -1.010571
 O         4.594515        -0.858044        -0.552485
 C         4.191627        -1.723701         0.531351
 C         2.827233        -2.354633         0.084959
 C         2.241558        -1.183430        -0.760795
 H        -0.662453        -0.462692        -0.662926
 H        -0.486550         0.629567         0.761812
 H        -0.125244         1.200463        -1.001723
 H         2.674286         2.036481        -0.235436
 H         3.763071         0.010135        -2.043916
 H         4.940688        -2.501089         0.762203
 H         4.127261        -0.955153         1.367628
 H         2.849725        -3.317187        -0.377665
 H         2.065366        -2.503744         0.860210
 H         1.842222        -1.552121        -1.690751
