19
Iteration:  2340
 C        -0.122683         0.095219        -0.315018
 C         1.395635         0.067997        -0.231103
 O         2.042668         0.437850         0.978504
 C         2.636670         1.016218        -0.174132
 C         3.489141        -0.110015        -0.823739
 O         4.649733        -0.705489         0.002233
 C         4.278152        -2.111986        -0.099291
 C         2.733811        -2.158141         0.092601
 C         2.292968        -1.026249        -0.792488
 H        -0.523446        -0.607487        -1.066528
 H        -0.568061        -0.036731         0.746127
 H        -0.467057         1.101457        -0.647755
 H         2.764635         2.123428        -0.012219
 H         3.801537         0.109766        -1.883278
 H         4.549527        -2.475797        -1.153381
 H         4.910102        -2.856834         0.483222
 H         2.456204        -3.219592        -0.152889
 H         2.386583        -2.062994         1.188254
 H         2.031572        -1.392173        -1.786603
