19
Iteration:  4243
 C        -0.054365         0.099152        -0.278047
 C         1.452951         0.020708        -0.304065
 O         2.044458         0.633036         0.984294
 C         2.593796         1.027815        -0.273780
 C         3.415735        -0.119874        -0.946828
 O         4.702458        -0.783854        -0.429423
 C         4.215723        -1.905526         0.475416
 C         2.785820        -2.383649         0.050180
 C         2.285277        -1.183935        -0.654738
 H        -0.375417        -0.406649        -1.186893
 H        -0.467259        -0.308613         0.709414
 H        -0.484947         1.114522        -0.189017
 H         2.659034         2.107403        -0.487781
 H         3.459486         0.186660        -2.030565
 H         4.942418        -2.733869         0.454031
 H         4.034426        -1.422380         1.465425
 H         2.716552        -3.290796        -0.489905
 H         2.211152        -2.611073         0.997735
 H         1.885178        -1.204644        -1.668755
