19
Iteration:    16
 C        -0.209283         0.421906        -0.229696
 C         1.318222        -0.009758        -0.144842
 O         2.088270         0.336184         1.064107
 C         2.610035         0.963182        -0.077215
 C         3.456619        -0.031320        -0.896617
 O         4.646802        -0.763636        -0.357992
 C         4.217456        -1.901679         0.453850
 C         2.944600        -2.490250        -0.198873
 C         2.354437        -1.135022        -0.990501
 H        -0.486430         1.333132         0.434834
 H        -0.379799         0.669005        -1.323260
 H        -0.928353        -0.414414         0.046015
 H         2.611987         2.070301        -0.207863
 H         3.785279         0.536189        -1.783086
 H         5.093965        -2.513464         0.564105
 H         3.817509        -1.517250         1.436935
 H         3.091613        -3.418891        -0.924790
 H         2.185253        -2.673670         0.761092
 H         2.011598        -1.375664        -2.019406
