19
Iteration:  4824
 C        -0.155620         0.343622        -0.427976
 C         1.380811        -0.008819        -0.355484
 O         2.010649         0.387953         1.023224
 C         2.570419         0.852009        -0.239271
 C         3.465156        -0.231201        -0.964100
 O         4.668839        -0.682734        -0.367026
 C         4.391350        -1.951133         0.253138
 C         2.817045        -2.076386         0.467354
 C         2.253087        -1.219042        -0.777539
 H        -0.631476        -0.130156        -1.337279
 H        -0.649052        -0.059303         0.595432
 H        -0.210079         1.438040        -0.429175
 H         2.476434         1.900307        -0.492139
 H         3.583132         0.072480        -2.005862
 H         4.927567        -2.649845        -0.442986
 H         4.831813        -2.040140         1.271224
 H         2.503951        -3.188006         0.387515
 H         2.516046        -1.575145         1.385214
 H         1.977158        -1.891844        -1.631873
