19
Iteration:  4672charge 0 multiplicity 1
 C         0.027698         0.125372        -0.164885
 C         1.457207         0.001248        -0.195429
 O         2.238386         0.433014         0.977891
 C         2.619737         0.887001        -0.372881
 C         3.460389        -0.193847        -1.061938
 O         4.526394        -0.787982        -0.362701
 C         4.030343        -1.577660         0.662714
 C         2.807986        -2.301660        -0.022904
 C         2.225273        -1.149120        -0.883586
 H        -0.379407        -0.313796        -1.034041
 H        -0.184691        -0.512602         0.694827
 H        -0.263404         1.098520         0.001290
 H         2.713508         1.992106        -0.460336
 H         3.917076         0.099601        -2.069237
 H         4.674727        -2.337274         1.177679
 H         3.690163        -0.911930         1.420833
 H         3.162102        -3.175661        -0.680620
 H         2.139691        -2.811614         0.673309
 H         1.617371        -1.276096        -1.831897
