19
Iteration:  4425
 C        -0.037757         0.330674        -0.227639
 C         1.388605        -0.055883        -0.320025
 O         2.031723         0.369287         0.897902
 C         2.580945         0.869115        -0.363277
 C         3.487606        -0.188618        -0.961671
 O         4.562903        -0.557600        -0.245924
 C         4.332516        -1.907675         0.394949
 C         2.803214        -2.250104         0.275499
 C         2.228698        -1.213054        -0.805795
 H        -0.741855        -0.060331        -0.998928
 H        -0.381854         0.002201         0.778567
 H        -0.025033         1.437069        -0.167321
 H         2.751740         1.908289        -0.603348
 H         3.624930        -0.130027        -2.053687
 H         4.837562        -2.563498        -0.342963
 H         4.961517        -1.845243         1.283248
 H         2.733365        -3.150279        -0.357815
 H         2.230907        -2.269277         1.185281
 H         1.947466        -1.657826        -1.783997
