19
Iteration:  1097charge 0 multiplicity 1
 C        -0.050576         0.163075        -0.198937
 C         1.466354         0.043381        -0.357443
 O         2.094895         0.193805         1.023353
 C         2.700642         0.934668         0.011961
 C         3.487523        -0.039892        -0.944771
 O         4.612285        -0.735759        -0.498593
 C         4.082548        -1.810624         0.511518
 C         2.696867        -2.200616         0.002553
 C         2.353479        -1.065011        -0.966784
 H        -0.341738        -0.810691         0.121922
 H        -0.256874         1.004042         0.486106
 H        -0.547620         0.328442        -1.150039
 H         2.930050         1.957874         0.285538
 H         3.639507         0.539162        -1.875532
 H         4.777334        -2.660595         0.294620
 H         4.087057        -1.314000         1.493764
 H         2.647467        -3.274473        -0.423088
 H         1.906447        -2.223804         0.813537
 H         1.870445        -1.510752        -1.875517
