19
Iteration:  2621charge 0 multiplicity 1
 C        -0.072964         0.319555        -0.175045
 C         1.459387         0.074940        -0.066485
 O         2.203848         0.384020         1.047702
 C         2.696895         0.955588        -0.261836
 C         3.426672        -0.101366        -0.954232
 O         4.507117        -0.627787        -0.196377
 C         4.148642        -1.980183         0.361611
 C         2.826295        -2.425174        -0.215838
 C         2.229875        -1.191508        -0.856059
 H        -0.448413        -0.439787        -0.942383
 H        -0.780901         0.463385         0.697155
 H        -0.266936         1.255074        -0.772417
 H         2.762055         2.012390        -0.443603
 H         3.667263         0.263788        -1.968986
 H         4.991115        -2.564402         0.106803
 H         4.020450        -1.784879         1.433783
 H         3.037357        -3.040511        -1.097562
 H         2.195953        -3.083313         0.478768
 H         1.736630        -1.333540        -1.811137
