19
Iteration:  4718charge 0 multiplicity 1
 C        -0.106813         0.211293        -0.030636
 C         1.429348        -0.049062        -0.270314
 O         2.265665         0.452926         0.791347
 C         2.594365         0.957783        -0.516066
 C         3.505294        -0.235699        -1.009091
 O         4.499344        -0.651305        -0.141768
 C         4.182332        -1.806279         0.594992
 C         2.769830        -2.252084         0.007292
 C         2.274238        -1.218430        -0.857390
 H        -0.557700         0.427883        -0.968713
 H        -0.613498        -0.656897         0.286164
 H        -0.340090         0.953560         0.725325
 H         2.450013         2.014491        -0.774355
 H         3.907276         0.117452        -2.003819
 H         5.113153        -2.367775         0.424597
 H         4.094327        -1.769074         1.682425
 H         2.775728        -3.234236        -0.486040
 H         2.106057        -2.420946         0.837962
 H         1.910374        -1.508462        -1.873515
