19
Iteration:  1552charge 0 multiplicity 1
 C        -0.080269        -0.045149        -0.254991
 C         1.403038         0.187768        -0.259684
 O         2.135035         0.495892         1.045500
 C         2.661335         1.046126        -0.159760
 C         3.496111        -0.117939        -0.840030
 O         4.537357        -0.704396        -0.065250
 C         4.245822        -2.105231         0.100709
 C         2.706041        -2.243557        -0.007243
 C         2.302552        -0.996513        -0.975447
 H        -0.388762        -0.654812         0.553724
 H        -0.791947         0.790505        -0.065373
 H        -0.394187        -0.593873        -1.062136
 H         3.015815         2.098246        -0.237722
 H         3.858087         0.062532        -1.871520
 H         4.749074        -2.688250        -0.633290
 H         4.539690        -2.550584         1.133019
 H         2.474923        -3.258303        -0.393703
 H         2.236675        -1.895543         0.959600
 H         1.991202        -0.999090        -2.025086
