19
Iteration:  4199charge 0 multiplicity 1
 C        -0.051449         0.119618        -0.325742
 C         1.377982         0.038715        -0.217756
 O         2.155239         0.509633         1.001475
 C         2.606541         0.953806        -0.295732
 C         3.449062        -0.199222        -0.952078
 O         4.658448        -0.728857        -0.453089
 C         4.201199        -1.833764         0.520858
 C         2.750223        -2.314444         0.125290
 C         2.253995        -1.088974        -0.767340
 H        -0.308533        -0.043593        -1.376211
 H        -0.522435        -0.662835         0.324863
 H        -0.512722         1.027569         0.086105
 H         2.582870         2.036813        -0.429698
 H         3.636013        -0.002631        -2.031364
 H         5.014894        -2.558176         0.390359
 H         4.141785        -1.339791         1.484307
 H         2.753095        -3.237832        -0.392047
 H         2.136528        -2.538916         1.031703
 H         1.878858        -1.606562        -1.642117
