19
Iteration:  4074
 C        -0.006717         0.040628        -0.392192
 C         1.504938         0.062692        -0.168930
 O         2.238790         0.510353         1.030302
 C         2.563390         0.976065        -0.278170
 C         3.426300        -0.166953        -0.950414
 O         4.517618        -0.687531        -0.415173
 C         4.134115        -1.803571         0.482361
 C         2.754771        -2.305164         0.135764
 C         2.248658        -1.158852        -0.755328
 H        -0.150927        -0.590066        -1.322467
 H        -0.409732        -0.519981         0.476191
 H        -0.553197         0.998450        -0.409131
 H         2.684916         1.977460        -0.710686
 H         3.835156         0.131472        -1.950011
 H         4.818471        -2.635941         0.334896
 H         4.347206        -1.619598         1.514451
 H         2.931100        -3.182348        -0.559181
 H         2.028830        -2.490184         0.902218
 H         1.726078        -1.294536        -1.718123
