19
Iteration:  2435charge 0 multiplicity 1
 C         0.091645         0.603995        -0.497949
 C         1.366407        -0.061107        -0.132087
 O         1.993129         0.211025         1.052630
 C         2.538895         0.835405        -0.195940
 C         3.375399        -0.145644        -0.938781
 O         4.586275        -0.610180        -0.301652
 C         4.416567        -1.911926         0.120039
 C         2.836390        -2.274004         0.278557
 C         2.175994        -1.283600        -0.742245
 H         0.126493         1.536224        -1.121499
 H        -0.575234        -0.184628        -0.790748
 H        -0.313955         0.981237         0.501440
 H         2.491702         1.942772        -0.292625
 H         3.567355         0.167470        -1.964301
 H         4.790957        -2.620320        -0.658722
 H         4.897107        -1.962150         1.143381
 H         2.540071        -3.294047         0.162419
 H         2.490994        -2.037889         1.343215
 H         1.956716        -1.639794        -1.758024
