19
Iteration:  4192
 C        -0.051514         0.188416        -0.314159
 C         1.493552         0.044020        -0.243162
 O         2.192833         0.427465         0.991376
 C         2.565894         0.952149        -0.327311
 C         3.456909        -0.206627        -0.925904
 O         4.607213        -0.695053        -0.417329
 C         4.196400        -1.766811         0.452460
 C         2.722293        -2.307642         0.167938
 C         2.219993        -1.215471        -0.767409
 H        -0.312087         0.026115        -1.345663
 H        -0.381989        -0.709801         0.214376
 H        -0.560048         1.045051         0.102103
 H         2.479600         2.038403        -0.410582
 H         3.696935         0.201874        -1.900821
 H         4.945238        -2.530298         0.597804
 H         4.206782        -1.224621         1.424284
 H         2.899084        -3.270710        -0.396647
 H         2.110936        -2.468218         1.055135
 H         1.742078        -1.412597        -1.764648
