19
Iteration:   752charge 0 multiplicity 1
 C        -0.053579        -0.192510        -0.115256
 C         1.474703         0.071995        -0.205279
 O         2.282598         0.343279         1.009204
 C         2.653447         1.025349        -0.226725
 C         3.637107        -0.076652        -1.030111
 O         4.575795        -0.794818        -0.274381
 C         3.952669        -1.820669         0.523330
 C         2.548848        -2.135066        -0.120582
 C         2.310672        -0.888805        -0.988736
 H        -0.205380        -1.134664         0.285361
 H        -0.348801         0.617489         0.543902
 H        -0.592713        -0.165711        -1.016257
 H         2.764651         2.143723        -0.304563
 H         3.940834         0.219115        -2.060337
 H         4.699093        -2.699249         0.466007
 H         3.921942        -1.484119         1.507451
 H         2.789314        -3.063652        -0.695870
 H         1.942357        -2.274093         0.762440
 H         1.938287        -1.066216        -2.012342
