19
Iteration:  1651
 C        -0.001896         0.495087        -0.274562
 C         1.394979        -0.132929        -0.294579
 O         2.058904         0.271902         1.038104
 C         2.526459         0.849078        -0.186199
 C         3.435705        -0.128255        -0.869659
 O         4.479577        -0.566740        -0.082330
 C         4.352281        -1.968189         0.105330
 C         2.876460        -2.321219         0.036829
 C         2.274740        -1.148498        -0.905693
 H        -0.724998        -0.002867         0.342243
 H         0.203794         1.416844         0.294433
 H        -0.569808         0.834354        -1.128379
 H         2.284907         1.890548        -0.318939
 H         3.792394         0.238167        -1.865045
 H         4.907765        -2.580937        -0.637889
 H         4.705475        -2.105377         1.222985
 H         2.710288        -3.359061        -0.417163
 H         2.443873        -2.169261         1.106526
 H         2.183726        -1.522755        -1.947035
