19
Iteration:  3261
 C        -0.023649         0.358054        -0.497444
 C         1.374237         0.009756        -0.116946
 O         2.073249         0.303356         1.052634
 C         2.642573         0.827708        -0.176560
 C         3.373281        -0.242480        -0.979702
 O         4.625399        -0.769838        -0.614837
 C         4.341581        -1.767522         0.368814
 C         2.751954        -2.139192         0.302444
 C         2.260560        -1.175841        -0.663360
 H        -0.128484         0.732106        -1.540841
 H        -0.708968        -0.460562        -0.488081
 H        -0.446125         1.133238         0.107951
 H         2.732317         1.918961        -0.129134
 H         3.448629         0.181246        -1.957879
 H         5.110442        -2.566936         0.218208
 H         4.307613        -1.379326         1.406916
 H         2.599264        -3.205464        -0.015481
 H         2.402058        -2.120964         1.357840
 H         1.725011        -1.554071        -1.542551
