19
Iteration:   419
 C        -0.050469         0.008234        -0.299009
 C         1.485554         0.004001        -0.137840
 O         2.295559         0.259222         1.085960
 C         2.701150         0.941642        -0.090467
 C         3.551806        -0.039099        -0.975707
 O         4.594819        -0.686226        -0.302353
 C         4.049309        -1.833647         0.433481
 C         2.587539        -2.175335        -0.110506
 C         2.213439        -1.004117        -0.990828
 H        -0.677075        -0.236361         0.507042
 H        -0.405617         0.982680        -0.595203
 H        -0.332936        -0.624232        -1.041672
 H         2.837513         2.035172        -0.118333
 H         3.769794         0.351154        -1.986852
 H         4.615812        -2.654696         0.227181
 H         4.163418        -1.666871         1.533002
 H         2.521520        -3.125273        -0.553078
 H         1.964370        -2.203042         0.830611
 H         1.712762        -1.178692        -2.011711
