19
Iteration:  4511
 C        -0.082624         0.041907        -0.427782
 C         1.394645         0.079831        -0.118486
 O         1.993882         0.789410         0.955565
 C         2.574886         0.984368        -0.334271
 C         3.454133        -0.198063        -0.908828
 O         4.554513        -0.746584        -0.173045
 C         4.294739        -2.108415         0.035148
 C         2.879851        -2.193577         0.311996
 C         2.371020        -1.155691        -0.624211
 H        -0.356070         0.137125        -1.527321
 H        -0.409709        -1.006721        -0.064384
 H        -0.688088         0.874675         0.028164
 H         2.621923         1.996327        -0.734831
 H         3.715831        -0.261794        -1.926540
 H         4.528032        -2.720135        -0.886880
 H         4.908482        -2.546496         0.844006
 H         2.391562        -3.133995         0.035831
 H         2.778413        -2.118172         1.344151
 H         1.956981        -1.620805        -1.548480
