19
Iteration:     6
 C        -0.078621         0.289011        -0.221658
 C         1.438036        -0.000607        -0.156034
 O         2.133639         0.266848         1.031413
 C         2.636668         0.904878        -0.102006
 C         3.451277        -0.032541        -0.905353
 O         4.590771        -0.729135        -0.309623
 C         4.121475        -1.824409         0.443903
 C         2.854363        -2.353157        -0.170587
 C         2.295610        -1.072257        -0.987438
 H        -0.356190         1.250938         0.288406
 H        -0.372236         0.417296        -1.291707
 H        -0.663194        -0.576751         0.174434
 H         2.580592         2.001943        -0.074705
 H         3.828121         0.365989        -1.862074
 H         4.932305        -2.570607         0.540355
 H         3.945534        -1.471192         1.489302
 H         2.818331        -3.190853        -0.951241
 H         2.045325        -2.722198         0.578599
 H         1.894824        -1.374767        -1.973567
