19
Iteration:  4856
 C        -0.081109         0.333735        -0.453891
 C         1.400706        -0.036460        -0.312498
 O         1.954325         0.462688         1.010809
 C         2.527346         0.876797        -0.268305
 C         3.413998        -0.220411        -0.936543
 O         4.596763        -0.696854        -0.324208
 C         4.473105        -2.006921         0.145344
 C         2.847410        -2.082743         0.474799
 C         2.278479        -1.229271        -0.704771
 H        -0.610381        -0.105102        -1.369015
 H        -0.736281         0.215125         0.548125
 H        -0.125580         1.423923        -0.619082
 H         2.483914         1.929156        -0.538403
 H         3.699834         0.062079        -1.951367
 H         4.963772        -2.693306        -0.558739
 H         4.921942        -2.230870         1.123659
 H         2.380858        -3.140739         0.403551
 H         2.730733        -1.786312         1.504733
 H         2.014115        -1.874054        -1.583147
