19
Iteration:  3050
 C        -0.017110         0.346654        -0.230328
 C         1.445549        -0.027761        -0.048143
 O         2.193845         0.579789         0.984117
 C         2.680363         0.883833        -0.386177
 C         3.311301        -0.278995        -1.017181
 O         4.579964        -0.681098        -0.334394
 C         4.158065        -1.839753         0.523743
 C         2.921224        -2.381769        -0.080305
 C         2.114044        -1.212366        -0.725402
 H        -0.686370        -0.389757        -0.648773
 H        -0.412179         0.668065         0.702281
 H         0.021411         1.121945        -0.992986
 H         2.654065         1.912804        -0.651502
 H         3.728039        -0.170707        -2.000728
 H         4.884774        -2.682791         0.444365
 H         4.119872        -1.381830         1.534880
 H         3.157216        -3.113771        -0.905521
 H         2.236072        -2.994569         0.476603
 H         1.422017        -1.551947        -1.510067
