19
Iteration:  3231charge 0 multiplicity 1
 C         0.046590         0.593838        -0.439646
 C         1.395988        -0.022942        -0.147178
 O         2.138449         0.368862         1.037816
 C         2.526147         0.781641        -0.255862
 C         3.299111        -0.259557        -1.032624
 O         4.523873        -0.689394        -0.513288
 C         4.316106        -1.765858         0.476662
 C         2.902491        -2.316481         0.210473
 C         2.235118        -1.328552        -0.695716
 H        -0.126263         1.063694        -1.373544
 H        -0.711917        -0.259455        -0.603777
 H        -0.258715         1.090675         0.490834
 H         2.458124         1.849822        -0.499424
 H         3.526133         0.197038        -2.006649
 H         5.255122        -2.298395         0.484225
 H         4.223094        -1.407086         1.517087
 H         3.097773        -3.286967        -0.271063
 H         2.507185        -2.565533         1.235087
 H         1.635747        -1.777360        -1.489079
