19
Iteration:  3183charge 0 multiplicity 1
 C        -0.031714         0.200231        -0.127807
 C         1.479272         0.049249        -0.277175
 O         2.224961         0.493488         0.943406
 C         2.690292         0.933271        -0.351269
 C         3.414692        -0.273348        -1.047099
 O         4.526802        -0.832787        -0.412506
 C         4.047245        -1.640332         0.633507
 C         2.810611        -2.324554         0.050974
 C         2.254962        -1.160142        -0.832800
 H        -0.579586         0.188096        -1.112383
 H        -0.513673        -0.597518         0.401809
 H        -0.191635         1.058134         0.507116
 H         2.647766         2.039528        -0.432190
 H         3.689388        -0.136038        -2.090105
 H         4.938108        -2.322924         0.842032
 H         3.849416        -1.223180         1.642311
 H         2.986528        -3.228637        -0.640927
 H         2.132242        -2.574324         0.899140
 H         1.897573        -1.517668        -1.826586
