19
Iteration:  2265charge 0 multiplicity 1
 C        -0.100954         0.286631        -0.118230
 C         1.420472         0.049397        -0.161608
 O         2.119314         0.444542         1.038685
 C         2.534433         1.038418        -0.270567
 C         3.427246        -0.162494        -0.919798
 O         4.597223        -0.673562        -0.116740
 C         4.234628        -1.998270         0.411712
 C         2.898204        -2.401062        -0.361350
 C         2.229701        -1.132856        -0.911548
 H        -0.543551        -0.674063        -0.465397
 H        -0.445490         0.714391         0.909979
 H        -0.475864         1.144835        -0.719760
 H         2.684289         2.159261        -0.325664
 H         3.881119         0.045208        -1.894006
 H         4.936961        -2.752273         0.195843
 H         4.383209        -1.931677         1.532329
 H         3.205687        -3.105477        -1.229827
 H         2.256099        -2.960120         0.381389
 H         1.790554        -1.458549        -1.877102
