19
Iteration:  2909charge 0 multiplicity 1
 C        -0.089212         0.356017        -0.234805
 C         1.404851         0.042337        -0.124611
 O         2.248684         0.562703         0.963001
 C         2.583009         0.921962        -0.391611
 C         3.379616        -0.257607        -0.940083
 O         4.581695        -0.678940        -0.301033
 C         4.217805        -1.915008         0.472919
 C         2.938201        -2.453465        -0.112603
 C         2.127550        -1.168716        -0.665630
 H        -0.665704         0.037341         0.697882
 H        -0.219601         1.465942        -0.282228
 H        -0.556007        -0.144939        -1.130061
 H         2.593445         1.993985        -0.418064
 H         3.479154        -0.066109        -1.997747
 H         5.036091        -2.694823         0.508451
 H         3.920168        -1.611586         1.449185
 H         3.126633        -3.204462        -0.978534
 H         2.329036        -3.140797         0.481809
 H         1.798800        -1.405294        -1.687675
