19
Iteration:   899
 C        -0.085762         0.250924        -0.300596
 C         1.473228         0.100996        -0.265534
 O         1.984716         0.172387         1.027682
 C         2.701496         0.918374         0.052905
 C         3.490970        -0.095157        -0.867930
 O         4.594801        -0.845810        -0.585361
 C         4.269549        -1.801604         0.386675
 C         2.731285        -2.128857         0.053581
 C         2.287091        -1.084537        -0.923036
 H        -0.380550        -0.775751         0.043352
 H        -0.392321         0.785459         0.562349
 H        -0.493264         0.561605        -1.280548
 H         2.757240         1.956392         0.406096
 H         3.743667         0.340331        -1.833542
 H         5.032858        -2.552398         0.354943
 H         4.291142        -1.427605         1.430550
 H         2.494703        -3.125426        -0.238779
 H         2.181984        -1.853180         1.020243
 H         1.941838        -1.397925        -1.913858
