19
Iteration:  1825charge 0 multiplicity 1
 C        -0.067717         0.341064        -0.274121
 C         1.363314         0.022074        -0.154460
 O         2.038213         0.376343         1.009774
 C         2.583842         0.911502        -0.190594
 C         3.451744        -0.090643        -0.904186
 O         4.561056        -0.574784        -0.091518
 C         4.334212        -2.035493         0.192922
 C         2.903701        -2.378510        -0.160630
 C         2.235743        -1.169285        -0.798601
 H        -0.848445        -0.158299         0.393419
 H        -0.141422         1.440903         0.056200
 H        -0.520756         0.411916        -1.270562
 H         2.735823         1.981417        -0.281704
 H         3.685792         0.180881        -1.941336
 H         4.944071        -2.602237        -0.488582
 H         4.720500        -2.317966         1.238811
 H         2.770703        -3.322031        -0.701470
 H         2.416438        -2.641827         0.825811
 H         1.851967        -1.334605        -1.761372
