19
Iteration:  2566
 C        -0.010086         0.229958         0.088357
 C         1.498369        -0.004399        -0.229578
 O         2.248443         0.385653         0.941574
 C         2.578668         0.942611        -0.292571
 C         3.531620        -0.189542        -1.071268
 O         4.532103        -0.701882        -0.164625
 C         3.900488        -1.783028         0.570407
 C         2.800345        -2.396723        -0.320727
 C         2.371634        -1.101688        -1.030648
 H        -0.869133        -0.425369        -0.360937
 H        -0.160122         0.015425         1.175925
 H        -0.376517         1.309890         0.033977
 H         2.685417         2.042452        -0.251926
 H         3.965720         0.164903        -1.987277
 H         4.751535        -2.301718         1.000779
 H         3.359905        -1.361171         1.444873
 H         3.281881        -3.000025        -1.082118
 H         1.937756        -2.913654         0.213854
 H         1.755123        -1.172567        -1.918319
