19
Iteration:  2913charge 0 multiplicity 1
 C        -0.082466         0.356458        -0.269810
 C         1.391505         0.038393        -0.085955
 O         2.222862         0.569412         1.009441
 C         2.606532         0.908556        -0.412218
 C         3.393746        -0.260227        -0.901352
 O         4.566337        -0.685587        -0.331660
 C         4.257495        -1.862684         0.439832
 C         2.899981        -2.470617        -0.108836
 C         2.128401        -1.197772        -0.665795
 H        -0.792201         0.008988         0.591198
 H        -0.132222         1.421241        -0.121664
 H        -0.528330        -0.028038        -1.214011
 H         2.741496         1.985768        -0.513208
 H         3.548152        -0.168841        -2.018738
 H         4.919958        -2.735092         0.441544
 H         3.940208        -1.505475         1.448889
 H         3.188195        -3.074621        -0.982884
 H         2.325159        -3.095710         0.594481
 H         1.887581        -1.420092        -1.741734
