19
Iteration:  3189
 C        -0.028384         0.296680        -0.161276
 C         1.426618         0.037520        -0.266135
 O         2.184908         0.476096         0.974725
 C         2.670260         0.885213        -0.343527
 C         3.408303        -0.247220        -1.076533
 O         4.558265        -0.844613        -0.389763
 C         4.137397        -1.652509         0.606631
 C         2.882801        -2.326039         0.077860
 C         2.226114        -1.173272        -0.807673
 H        -0.611511         0.425175        -1.078705
 H        -0.620125        -0.651250         0.165854
 H        -0.226951         1.132801         0.564415
 H         2.617674         1.919095        -0.669007
 H         3.607404        -0.070320        -2.163992
 H         4.811468        -2.452029         0.857033
 H         3.933638        -1.021018         1.494342
 H         2.893014        -3.105135        -0.645528
 H         2.077383        -2.747476         0.697579
 H         1.822321        -1.709538        -1.663701
