19
Iteration:   573charge 0 multiplicity 1
 C        -0.092290         0.213646        -0.200157
 C         1.434251         0.093543        -0.300854
 O         1.902864         0.315497         1.066351
 C         2.612000         0.937423        -0.002603
 C         3.577077        -0.067328        -0.907995
 O         4.703777        -0.837643        -0.467285
 C         4.257723        -1.902373         0.408902
 C         2.742717        -2.246622        -0.065387
 C         2.296479        -1.040183        -0.946380
 H        -0.357167        -0.539901         0.520623
 H        -0.438428         1.161249         0.121263
 H        -0.519221        -0.035747        -1.150634
 H         2.765572         2.016645         0.204984
 H         3.845916         0.549145        -1.789134
 H         4.962926        -2.635658         0.311613
 H         4.209473        -1.510229         1.475855
 H         2.656945        -3.208486        -0.585622
 H         2.009041        -2.279632         0.770541
 H         2.087101        -1.357213        -2.022899
