19
Iteration:   395charge 0 multiplicity 1
 C         0.041544         0.299071        -0.411168
 C         1.478089         0.040913        -0.097465
 O         2.251524         0.203195         1.105241
 C         2.568531         0.918569        -0.131921
 C         3.416951        -0.060617        -0.969603
 O         4.488839        -0.637637        -0.274811
 C         4.192394        -1.858030         0.343766
 C         2.756839        -2.313200        -0.083904
 C         2.222880        -1.134652        -0.852642
 H        -0.544806         0.334527         0.517582
 H        -0.138192         1.285080        -0.862099
 H        -0.419734        -0.441078        -1.010515
 H         2.420424         1.978722        -0.044805
 H         3.623897         0.239227        -2.013114
 H         4.889040        -2.609177         0.140090
 H         4.217871        -1.713201         1.437689
 H         2.800301        -3.211406        -0.761881
 H         2.263718        -2.606875         0.848643
 H         1.783116        -1.343241        -1.821808
