19
Iteration:  3951charge 0 multiplicity 1
 C        -0.037587         0.117631        -0.403221
 C         1.462085         0.003333        -0.111426
 O         1.997504         0.668706         1.036265
 C         2.563257         0.979706        -0.325393
 C         3.468253        -0.159737        -0.943841
 O         4.551384        -0.682895        -0.200117
 C         4.343474        -2.042958         0.171220
 C         2.819754        -2.285596         0.220697
 C         2.253175        -1.151174        -0.772927
 H        -0.232988         0.153316        -1.455052
 H        -0.421619        -0.901931        -0.119299
 H        -0.535984         0.984522        -0.020415
 H         2.715537         2.009601        -0.591662
 H         3.714069         0.141308        -1.994921
 H         4.792636        -2.592477        -0.653938
 H         4.813635        -2.273445         1.142606
 H         2.432384        -3.266916        -0.121078
 H         2.524275        -2.135854         1.302922
 H         1.807247        -1.742320        -1.603500
