19
Iteration:  2619
 C        -0.083765         0.324534        -0.160073
 C         1.461347         0.069145        -0.081210
 O         2.215285         0.382865         1.055132
 C         2.694098         0.942547        -0.255933
 C         3.440356        -0.097430        -0.968811
 O         4.494509        -0.615780        -0.188254
 C         4.140876        -1.978824         0.377030
 C         2.830349        -2.428548        -0.228865
 C         2.221599        -1.192973        -0.852959
 H        -0.520105        -0.396170        -0.942142
 H        -0.730971         0.499806         0.663646
 H        -0.254546         1.286730        -0.753233
 H         2.740550         2.030556        -0.474308
 H         3.673104         0.145404        -2.048957
 H         5.002755        -2.544937         0.115457
 H         4.031990        -1.794049         1.469673
 H         3.104187        -3.042237        -1.140265
 H         2.221829        -3.087736         0.456677
 H         1.782831        -1.361725        -1.877977
