19
Iteration:  4635
 C        -0.055906         0.184738        -0.247042
 C         1.427377        -0.001038        -0.210579
 O         2.047023         0.570396         0.976404
 C         2.592041         0.884162        -0.327320
 C         3.451021        -0.198755        -0.934296
 O         4.646286        -0.844336        -0.433822
 C         4.245892        -1.766949         0.518973
 C         2.837787        -2.332119         0.056173
 C         2.212966        -1.109915        -0.769771
 H        -0.664261        -0.277121        -1.090065
 H        -0.529387        -0.245153         0.666882
 H        -0.422755         1.279737        -0.320235
 H         2.779470         1.918629        -0.530330
 H         3.700828         0.258332        -1.857767
 H         5.087715        -2.477459         0.560287
 H         4.092860        -1.249762         1.533372
 H         3.074469        -3.133415        -0.623849
 H         2.266696        -2.627699         0.991989
 H         1.852369        -1.317501        -1.775997
