19
Iteration:   413charge 0 multiplicity 1
 C         0.003595         0.087647        -0.316199
 C         1.450824        -0.077978        -0.076200
 O         2.304581         0.245051         1.089320
 C         2.691214         0.957076        -0.110513
 C         3.489061        -0.068215        -0.981716
 O         4.547607        -0.634643        -0.303556
 C         4.053335        -1.850131         0.430780
 C         2.643890        -2.191888        -0.087015
 C         2.234526        -0.997182        -0.968678
 H        -0.928885        -0.061777         0.406173
 H        -0.239610         1.089909        -0.787334
 H        -0.289007        -0.684507        -1.218973
 H         3.056303         2.006663        -0.136494
 H         3.704964         0.368132        -1.970360
 H         4.824963        -2.712983         0.003801
 H         4.141636        -1.675630         1.491476
 H         2.503556        -3.255190        -0.556195
 H         1.894294        -2.236439         0.688756
 H         1.772519        -1.247555        -1.894991
