19
Iteration:  2780
 C        -0.089691         0.290554        -0.221186
 C         1.446120         0.023428        -0.112150
 O         2.168442         0.524708         1.015481
 C         2.558200         0.964071        -0.315186
 C         3.477819        -0.182607        -0.949853
 O         4.563078        -0.790019        -0.339434
 C         4.197914        -1.902378         0.492569
 C         2.844811        -2.376287        -0.097393
 C         2.205835        -1.130404        -0.808388
 H        -0.183642         1.315432        -0.639921
 H        -0.632289        -0.499457        -0.673793
 H        -0.394824         0.427779         0.834139
 H         2.660839         2.039952        -0.548482
 H         3.797796         0.081420        -1.974527
 H         4.902378        -2.707316         0.175741
 H         4.232818        -1.677587         1.570624
 H         3.161841        -2.908911        -0.979792
 H         2.270010        -2.960795         0.584813
 H         1.652707        -1.431749        -1.748557
