19
Iteration:   518
 C         0.040269         0.356786        -0.313444
 C         1.518736        -0.044031        -0.052538
 O         2.381960         0.324277         1.163817
 C         2.566865         0.880938        -0.240678
 C         3.348082        -0.215079        -1.037242
 O         4.384419        -0.522378        -0.111063
 C         4.087838        -1.816346         0.441555
 C         2.950419        -2.421651        -0.323785
 C         2.119027        -1.172370        -0.899066
 H        -0.677323        -0.416828        -0.386036
 H        -0.304946         0.976660         0.482535
 H        -0.089792         0.860736        -1.214978
 H         2.304536         1.983399        -0.369668
 H         3.707714         0.017056        -2.066972
 H         4.899673        -2.392059         0.322744
 H         3.883374        -1.744405         1.551663
 H         3.379748        -2.955276        -1.131478
 H         2.216986        -2.984332         0.335787
 H         1.710768        -1.325370        -1.974333
