19
Iteration:   108
 C         0.013574         0.179356        -0.327201
 C         1.459344         0.087630        -0.209118
 O         1.986103         0.050291         1.097435
 C         2.691319         0.908290         0.012115
 C         3.474007        -0.048256        -0.924816
 O         4.610090        -0.756283        -0.441214
 C         4.165719        -1.770335         0.407829
 C         2.714023        -2.124931        -0.012466
 C         2.307016        -1.002783        -0.972626
 H        -0.373401         1.103377        -0.036487
 H        -0.260790        -0.001477        -1.340764
 H        -0.378177        -0.570972         0.326793
 H         2.876116         1.940351         0.255795
 H         3.757501         0.367386        -1.915506
 H         4.808725        -2.703160         0.215539
 H         4.247365        -1.437150         1.422649
 H         2.729936        -3.003606        -0.650643
 H         2.068131        -2.300783         0.779040
 H         1.947822        -1.185692        -1.966376
