19
Iteration:  2502charge 0 multiplicity 1
 C        -0.004030         0.051694        -0.240324
 C         1.483998        -0.004459        -0.147767
 O         2.229585         0.537086         0.975670
 C         2.675906         0.972161        -0.251308
 C         3.483333        -0.125556        -0.932168
 O         4.570065        -0.757009        -0.301888
 C         4.126399        -1.893219         0.420616
 C         2.578241        -2.258554         0.030969
 C         2.274866        -1.059479        -0.924106
 H        -0.440900         0.528575        -1.147517
 H        -0.317434        -1.017520        -0.132606
 H        -0.390550         0.525347         0.689586
 H         2.735004         2.069888        -0.425157
 H         3.853574         0.249626        -1.881173
 H         4.746467        -2.759097         0.021389
 H         4.276023        -1.700999         1.514534
 H         2.757297        -3.115469        -0.570077
 H         1.743150        -2.449218         0.764217
 H         1.689203        -1.327650        -1.809745
