19
Iteration:  1843
 C        -0.040602         0.241851        -0.191532
 C         1.439402         0.045176        -0.229176
 O         1.993544         0.435553         1.074107
 C         2.611810         0.968086        -0.190949
 C         3.501400        -0.205804        -0.878735
 O         4.553256        -0.635923        -0.187990
 C         4.317303        -1.990469         0.236247
 C         2.785616        -2.332154        -0.105607
 C         2.275160        -1.100867        -0.910841
 H        -0.284720        -0.707740         0.297716
 H        -0.554393         1.106228         0.287201
 H        -0.542094         0.302561        -1.161267
 H         2.691145         2.026013        -0.188261
 H         3.904496         0.246698        -1.800127
 H         5.136657        -2.638713        -0.221968
 H         4.316051        -2.055401         1.264198
 H         2.739388        -3.118317        -0.840977
 H         2.105671        -2.517865         0.700170
 H         1.919477        -1.273899        -1.984655
