19
Iteration:  3141charge 0 multiplicity 1
 C         0.029945        -0.075906         0.026994
 C         1.489321         0.029023        -0.221320
 O         2.418555         0.531436         0.844873
 C         2.595391         1.035986        -0.453511
 C         3.583863        -0.271461        -1.073949
 O         4.439214        -0.715921        -0.201279
 C         3.962271        -1.812768         0.595011
 C         2.613750        -2.190808        -0.004773
 C         2.286220        -1.050183        -0.970807
 H        -0.445973        -0.910512        -0.503426
 H        -0.141546        -0.379999         1.023748
 H        -0.456302         0.863593        -0.114171
 H         2.831632         2.097765        -0.689975
 H         3.863714        -0.221930        -2.107384
 H         4.584209        -2.722214         0.720165
 H         3.919055        -1.279132         1.529168
 H         2.679576        -3.248179        -0.351281
 H         1.740998        -2.306790         0.670056
 H         1.844497        -1.228768        -1.979930
