19
Iteration:  2751charge 0 multiplicity 1
 C        -0.106814         0.509099        -0.359253
 C         1.389972         0.033840        -0.072444
 O         2.109649         0.410154         1.066484
 C         2.617927         0.927948        -0.262125
 C         3.387964        -0.261893        -0.906442
 O         4.546802        -0.624940        -0.315095
 C         4.321720        -1.870853         0.312223
 C         2.888552        -2.498166        -0.044689
 C         2.206603        -1.269069        -0.773395
 H         0.032897         1.450015        -0.957111
 H        -0.864238        -0.202097        -0.744979
 H        -0.289279         0.899011         0.638058
 H         2.934768         1.908634        -0.463891
 H         3.560724         0.047069        -1.980458
 H         5.139048        -2.521471        -0.005311
 H         4.456541        -1.686963         1.465160
 H         2.874928        -3.313452        -0.791516
 H         2.415496        -2.733639         1.009092
 H         1.624790        -1.594364        -1.638216
