19
Iteration:  4557
 C        -0.080381         0.234783        -0.362975
 C         1.446388        -0.015748        -0.314668
 O         2.006885         0.502816         0.942016
 C         2.588371         0.914045        -0.364457
 C         3.482416        -0.210324        -0.915977
 O         4.482204        -0.618897        -0.177124
 C         4.307569        -2.045516         0.050810
 C         2.878271        -2.125055         0.425885
 C         2.297809        -1.266077        -0.657772
 H        -0.414499         0.785122        -1.312794
 H        -0.723738        -0.670724        -0.211127
 H        -0.249693         1.141890         0.367583
 H         2.803935         2.006290        -0.508061
 H         3.742065         0.076554        -1.923431
 H         4.529421        -2.745368        -0.807421
 H         5.169099        -2.147368         0.799240
 H         2.580367        -3.164214         0.417504
 H         2.552626        -1.789773         1.446957
 H         1.996459        -1.795996        -1.558392
