19
Iteration:  2188charge 0 multiplicity 1
 C        -0.060392         0.090425        -0.165816
 C         1.458821         0.044942        -0.266584
 O         2.205065         0.129557         0.982671
 C         2.642959         0.991260        -0.104477
 C         3.499181        -0.052357        -0.913537
 O         4.674513        -0.659227        -0.320316
 C         4.068558        -1.829765         0.462831
 C         2.643414        -2.229820        -0.064501
 C         2.236863        -1.004246        -1.019322
 H        -0.417053        -0.608491         0.608886
 H        -0.530520         1.074053         0.155999
 H        -0.403700        -0.157714        -1.194468
 H         2.915994         1.989592         0.147785
 H         3.759317         0.265547        -1.929978
 H         4.811823        -2.575108         0.381761
 H         3.983186        -1.341212         1.450504
 H         2.852202        -3.043478        -0.771061
 H         1.896501        -2.324359         0.746364
 H         2.056229        -1.265337        -2.065429
