19
Iteration:   847charge 0 multiplicity 1
 C         0.105829         0.480853        -0.421830
 C         1.422465        -0.035503        -0.053379
 O         2.115824         0.290014         1.151232
 C         2.617729         0.813622        -0.079962
 C         3.244418        -0.126687        -0.923505
 O         4.508465        -0.603731        -0.443076
 C         4.233257        -1.756098         0.411476
 C         2.961319        -2.495150        -0.096193
 C         2.145638        -1.229166        -0.825770
 H        -0.775995        -0.236283        -0.482775
 H         0.039379         1.456184         0.120796
 H         0.258386         0.825884        -1.522825
 H         2.690246         1.921282        -0.084064
 H         3.398047         0.295148        -1.932787
 H         5.108864        -2.309983         0.330744
 H         4.050344        -1.502522         1.530890
 H         3.210625        -3.092899        -0.998807
 H         2.518870        -3.036424         0.674215
 H         1.602739        -1.462056        -1.812023
