19
Iteration:  4091charge 0 multiplicity 1
 C        -0.066887         0.086514        -0.364139
 C         1.440157        -0.037004        -0.071262
 O         2.216098         0.527304         1.004139
 C         2.607153         0.983761        -0.304427
 C         3.417933        -0.119670        -1.042304
 O         4.646558        -0.757071        -0.411434
 C         4.161031        -1.787583         0.547672
 C         2.748098        -2.341350         0.032377
 C         2.205340        -1.117312        -0.732406
 H        -0.181458        -0.264349        -1.363861
 H        -0.672608        -0.651341         0.214700
 H        -0.338482         1.141184        -0.343636
 H         2.611685         2.086934        -0.299838
 H         3.554138        -0.067168        -2.140986
 H         5.121195        -2.372716         0.695962
 H         3.825075        -1.188226         1.477018
 H         2.767202        -3.240705        -0.582451
 H         2.296302        -2.531437         1.064800
 H         1.930458        -1.570944        -1.717273
