19
Iteration:  4194
 C        -0.049990         0.167418        -0.316349
 C         1.454283         0.042822        -0.240844
 O         2.183072         0.454257         0.996568
 C         2.578491         0.953105        -0.320953
 C         3.455588        -0.212627        -0.923679
 O         4.625399        -0.701122        -0.431875
 C         4.194519        -1.789904         0.469293
 C         2.724974        -2.308096         0.160224
 C         2.233804        -1.169676        -0.763816
 H        -0.299833        -0.011404        -1.402968
 H        -0.419266        -0.680747         0.261499
 H        -0.577300         1.036353         0.120948
 H         2.487196         2.046346        -0.403298
 H         3.694272         0.148356        -1.946058
 H         5.011923        -2.570380         0.537121
 H         4.187323        -1.230919         1.436795
 H         2.870806        -3.322411        -0.415117
 H         2.118581        -2.504924         1.032096
 H         1.760384        -1.484545        -1.752468
