19
Iteration:  2957charge 0 multiplicity 1
 C        -0.019077         0.338904        -0.347880
 C         1.463555         0.000035        -0.181586
 O         2.163621         0.371785         1.063006
 C         2.574347         0.926551        -0.217517
 C         3.399859        -0.183028        -0.936976
 O         4.591618        -0.864658        -0.597019
 C         4.236347        -1.721067         0.446180
 C         2.749341        -2.270552         0.183218
 C         2.270230        -1.174616        -0.741511
 H        -0.729022        -0.571428        -0.494449
 H        -0.435508         0.902211         0.516582
 H        -0.081834         0.927630        -1.302117
 H         2.634979         2.043660        -0.314107
 H         3.383184         0.245650        -1.975611
 H         5.047588        -2.454040         0.248195
 H         4.226871        -1.291008         1.507388
 H         2.710626        -3.257718        -0.266979
 H         2.160709        -2.436400         1.122412
 H         1.773239        -1.556496        -1.674837
