19
Iteration:   639charge 0 multiplicity 1
 C         0.004176         0.359363        -0.339183
 C         1.379745        -0.060014        -0.097823
 O         2.121616         0.273502         1.081228
 C         2.630058         0.865537        -0.075648
 C         3.466446        -0.100449        -0.895713
 O         4.596258        -0.675291        -0.403138
 C         4.213217        -1.781233         0.417729
 C         2.748624        -2.343214        -0.151690
 C         2.218839        -1.125893        -0.843998
 H        -0.715024         0.164052         0.421151
 H        -0.052135         1.367566        -0.652247
 H        -0.357398        -0.262428        -1.157436
 H         2.781474         1.925139        -0.133938
 H         3.787343         0.220882        -1.902516
 H         4.963239        -2.491646         0.333588
 H         4.121043        -1.447280         1.506759
 H         2.920212        -3.102061        -0.923745
 H         2.143463        -2.676693         0.679944
 H         1.852539        -1.374320        -1.904762
