19
Iteration:  4185charge 0 multiplicity 1
 C        -0.011246         0.223623        -0.297834
 C         1.518554         0.000880        -0.215486
 O         2.213276         0.346645         0.972150
 C         2.585564         0.951023        -0.322723
 C         3.431418        -0.144107        -0.988274
 O         4.559263        -0.692609        -0.370978
 C         4.181454        -1.680433         0.480316
 C         2.746696        -2.281900         0.172820
 C         2.181082        -1.297861        -0.801577
 H        -0.423488         0.195213        -1.390012
 H        -0.401328        -0.715652         0.120976
 H        -0.416739         1.185552         0.134702
 H         2.576202         2.034578        -0.498042
 H         3.686824         0.218730        -2.033766
 H         4.944790        -2.552792         0.542826
 H         4.128752        -1.299873         1.523882
 H         2.863327        -3.293283        -0.361873
 H         2.180410        -2.346564         1.097916
 H         1.766982        -1.477939        -1.810579
