19
Iteration:  1001
 C        -0.115802         0.362581         0.078670
 C         1.369780         0.034248        -0.094672
 O         2.206129         0.691487         0.880396
 C         2.442265         1.042861        -0.430700
 C         3.503044        -0.120108        -0.911927
 O         4.388615        -0.755004         0.141705
 C         4.319193        -2.146353         0.305706
 C         2.977104        -2.515204        -0.460326
 C         2.310759        -1.184110        -0.867299
 H        -0.575188        -0.233648         0.916923
 H        -0.223869         1.522560         0.206855
 H        -0.669891         0.032188        -0.845010
 H         2.210796         2.039080        -0.805326
 H         4.161978         0.043346        -1.783399
 H         5.077476        -2.585844        -0.269915
 H         4.397285        -2.358988         1.430263
 H         3.210403        -3.045492        -1.423393
 H         2.314502        -3.149386        -0.029823
 H         1.765072        -1.256476        -1.893417
