19
Iteration:  2174
 C        -0.060168         0.225308        -0.154007
 C         1.405219         0.030546        -0.259373
 O         2.084118         0.199551         0.988616
 C         2.600759         0.896686        -0.106740
 C         3.549816        -0.026482        -0.953716
 O         4.623884        -0.681277        -0.262533
 C         4.190098        -1.844097         0.379356
 C         2.743993        -2.266629        -0.144074
 C         2.314083        -1.064682        -0.952095
 H        -0.405509        -0.409618         0.692295
 H        -0.242026         1.269164        -0.036534
 H        -0.693746        -0.107761        -1.032606
 H         2.470763         1.963221        -0.052585
 H         3.949532         0.484175        -1.864598
 H         4.924633        -2.601940         0.293892
 H         4.081030        -1.758376         1.467769
 H         2.476826        -3.244895        -0.527521
 H         2.206494        -2.326121         0.887242
 H         1.848058        -1.302943        -1.887662
