19
Iteration:  2126charge 0 multiplicity 1
 C        -0.128854         0.412695        -0.463468
 C         1.393253         0.007948        -0.042785
 O         2.029145         0.353259         1.196684
 C         2.597307         0.927017        -0.202840
 C         3.432250        -0.149912        -0.853969
 O         4.496280        -0.557936        -0.167388
 C         4.390996        -2.013226         0.084260
 C         2.954451        -2.414247        -0.155618
 C         2.232914        -1.139112        -0.707143
 H        -0.805287        -0.187886         0.129307
 H        -0.263770         1.516664        -0.289240
 H        -0.362926         0.373762        -1.514708
 H         2.705223         2.060272        -0.371781
 H         3.602770         0.001872        -1.947960
 H         5.240333        -2.728661        -0.433561
 H         4.597469        -2.161800         1.140133
 H         2.866733        -3.301763        -0.894672
 H         2.688061        -2.832244         0.814856
 H         1.714156        -1.365950        -1.707366
