19
Iteration:  4233
 C        -0.040872         0.079641        -0.274523
 C         1.406436         0.135279        -0.192920
 O         1.996576         0.672987         0.990586
 C         2.542870         0.991931        -0.266512
 C         3.526762        -0.188081        -0.886213
 O         4.674963        -0.841554        -0.476840
 C         4.248622        -1.885234         0.486813
 C         2.793646        -2.381499         0.076320
 C         2.249748        -1.109259        -0.776465
 H        -0.393484        -0.455275        -1.129775
 H        -0.344995        -0.597730         0.571916
 H        -0.476783         1.068896        -0.309967
 H         2.613591         1.992046        -0.682877
 H         3.662636         0.069843        -1.951528
 H         5.058908        -2.600818         0.428910
 H         4.301360        -1.592362         1.547266
 H         2.771805        -3.135196        -0.627681
 H         2.197672        -2.579636         0.991620
 H         2.001791        -1.507114        -1.783494
