19
Iteration:  3138
 C         0.035249        -0.072102         0.038810
 C         1.502278         0.027459        -0.233843
 O         2.413304         0.546587         0.825153
 C         2.600426         1.045962        -0.457582
 C         3.560251        -0.245297        -1.074610
 O         4.428632        -0.703941        -0.180806
 C         3.967121        -1.842416         0.589067
 C         2.621719        -2.222398         0.009388
 C         2.275650        -1.055716        -0.989426
 H        -0.379270        -0.980784        -0.457733
 H        -0.198379        -0.279753         1.070102
 H        -0.520616         0.875975        -0.055136
 H         2.915160         2.091995        -0.631918
 H         3.957947        -0.200593        -2.122036
 H         4.619723        -2.752807         0.781200
 H         4.001421        -1.327822         1.592375
 H         2.707224        -3.282967        -0.466615
 H         1.721581        -2.258821         0.636851
 H         1.823368        -1.312920        -1.973302
