19
Iteration:  3059
 C         0.019681         0.311974        -0.183736
 C         1.458152         0.009524        -0.088262
 O         2.233791         0.635913         0.923628
 C         2.555463         0.925368        -0.392049
 C         3.365315        -0.270076        -1.038459
 O         4.533483        -0.672073        -0.231983
 C         4.196593        -1.872252         0.502578
 C         2.848144        -2.460240        -0.181156
 C         2.150340        -1.263493        -0.644067
 H        -0.656306        -0.398129        -0.615054
 H        -0.329530         0.797907         0.794601
 H        -0.046549         1.177906        -0.895821
 H         2.814729         1.914105        -0.667328
 H         3.486556        -0.213729        -2.176412
 H         5.046205        -2.611792         0.536819
 H         3.942946        -1.457715         1.566082
 H         3.218575        -2.999251        -1.050078
 H         2.326595        -3.014256         0.586593
 H         1.660731        -1.512439        -1.565128
