19
Iteration:  2253
 C        -0.072758         0.175395        -0.129019
 C         1.419910         0.033154        -0.133574
 O         2.110147         0.489744         1.034723
 C         2.590884         0.986190        -0.208901
 C         3.527358        -0.123435        -0.909874
 O         4.567288        -0.776067        -0.246502
 C         4.155356        -1.934744         0.438557
 C         2.892770        -2.329270        -0.299100
 C         2.247225        -1.078529        -0.930184
 H        -0.724233        -0.701541        -0.305865
 H        -0.350042         0.453159         0.954309
 H        -0.318925         0.916336        -0.930903
 H         2.588971         2.081971        -0.217457
 H         3.893482         0.292147        -1.867682
 H         4.962417        -2.599989         0.362066
 H         3.737069        -1.740785         1.464528
 H         3.172728        -2.999663        -1.176290
 H         2.187422        -2.988490         0.350273
 H         1.750465        -1.205853        -1.900708
