19
Iteration:  4349charge 0 multiplicity 1
 C        -0.098832         0.111220        -0.232736
 C         1.413997         0.088295        -0.130062
 O         2.159884         0.493580         0.948345
 C         2.642995         0.920258        -0.349651
 C         3.417045        -0.167656        -0.980033
 O         4.640593        -0.843276        -0.466150
 C         4.163766        -1.684460         0.629413
 C         2.754893        -2.278186         0.071513
 C         2.299961        -1.219637        -0.836788
 H        -0.547780         0.431393        -1.173148
 H        -0.322021        -0.874366        -0.110924
 H        -0.523290         0.816736         0.453943
 H         2.886630         1.967414        -0.473412
 H         3.660139         0.211184        -2.007791
 H         5.083594        -2.208915         0.837063
 H         3.924294        -1.187505         1.572853
 H         2.967456        -3.158054        -0.629796
 H         2.005556        -2.614600         0.814914
 H         1.800697        -1.359493        -1.789909
