19
Iteration:  2484charge 0 multiplicity 1
 C        -0.091687         0.256013        -0.218683
 C         1.435904         0.091026        -0.280461
 O         2.115793         0.385289         0.999002
 C         2.620796         0.962753        -0.290400
 C         3.493647        -0.177418        -0.980054
 O         4.586218        -0.692257        -0.284781
 C         4.211665        -1.987630         0.389457
 C         2.772907        -2.272486         0.061060
 C         2.268098        -1.102084        -0.802977
 H        -0.326882         0.958101        -0.966364
 H        -0.564288        -0.707632        -0.425178
 H        -0.356178         0.695708         0.698571
 H         2.700917         2.019534        -0.283367
 H         3.694278         0.032584        -2.060110
 H         4.875539        -2.749831        -0.018408
 H         4.270323        -1.863695         1.456939
 H         2.555346        -3.301867        -0.324609
 H         2.344779        -2.325757         1.027618
 H         1.904205        -1.415652        -1.794429
