19
Iteration:  3058charge 0 multiplicity 1
 C         0.017686         0.310365        -0.188904
 C         1.460679         0.006031        -0.082778
 O         2.227716         0.630378         0.926839
 C         2.568174         0.919355        -0.385898
 C         3.354489        -0.268682        -1.037313
 O         4.540857        -0.671197        -0.240410
 C         4.195872        -1.871919         0.505758
 C         2.857242        -2.450511        -0.177860
 C         2.141379        -1.260392        -0.647161
 H        -0.678662        -0.376594        -0.649418
 H        -0.332587         0.805509         0.820442
 H        -0.028877         1.163279        -0.925991
 H         2.821636         1.925350        -0.674950
 H         3.522625        -0.224262        -2.183405
 H         5.010495        -2.631657         0.518683
 H         3.963422        -1.409197         1.552230
 H         3.219518        -3.003760        -1.022315
 H         2.291284        -3.007039         0.583207
 H         1.632658        -1.526079        -1.552440
