19
Iteration:  3798charge 0 multiplicity 1
 C        -0.041135         0.114056        -0.237588
 C         1.442697         0.019755        -0.268936
 O         2.203194         0.408338         0.920044
 C         2.575350         0.976421        -0.327180
 C         3.417589        -0.112326        -0.956094
 O         4.604493        -0.708176        -0.318266
 C         4.215058        -1.855094         0.485066
 C         2.776297        -2.263170         0.118667
 C         2.223144        -1.125269        -0.819932
 H        -0.372955         0.458469        -1.201682
 H        -0.646005        -0.751512         0.133651
 H        -0.239146         0.904597         0.479676
 H         2.434483         2.068857        -0.296282
 H         3.628396         0.227794        -2.004058
 H         4.798929        -2.757193         0.336808
 H         4.355797        -1.629305         1.552526
 H         2.761470        -3.197848        -0.429818
 H         2.052182        -2.439501         0.937534
 H         1.866831        -1.467751        -1.795853
