19
Iteration:   212charge 0 multiplicity 1
 C        -0.048903         0.208523        -0.177783
 C         1.431769         0.005141        -0.027388
 O         2.209770         0.446269         1.087368
 C         2.489722         1.107333        -0.238829
 C         3.504927        -0.094105        -0.988858
 O         4.510000        -0.707923        -0.106989
 C         4.082526        -2.000625         0.445602
 C         2.945451        -2.430345        -0.433828
 C         2.290666        -1.102726        -0.908804
 H        -0.306473         1.164889         0.335681
 H        -0.178264         0.414980        -1.290686
 H        -0.771078        -0.580174         0.161168
 H         2.229532         2.145312        -0.388843
 H         3.958985         0.146959        -1.950830
 H         4.982906        -2.584805         0.446427
 H         3.753211        -1.943984         1.545730
 H         3.345596        -2.764349        -1.355971
 H         2.268495        -3.260294        -0.035590
 H         1.714041        -1.199054        -1.904756
