19
Iteration:  4426charge 0 multiplicity 1
 C        -0.032816         0.332247        -0.221008
 C         1.388983        -0.053245        -0.323535
 O         2.025284         0.363497         0.894212
 C         2.578195         0.864897        -0.365037
 C         3.482389        -0.188712        -0.958348
 O         4.566991        -0.552369        -0.245651
 C         4.330410        -1.907846         0.389632
 C         2.801826        -2.251185         0.275099
 C         2.235469        -1.215861        -0.804983
 H        -0.696848        -0.064004        -0.990053
 H        -0.372157         0.062561         0.750908
 H        -0.031122         1.429135        -0.150126
 H         2.748976         1.901870        -0.620525
 H         3.623648        -0.153546        -2.062207
 H         4.827856        -2.519015        -0.353316
 H         4.941712        -1.891448         1.310156
 H         2.742835        -3.165746        -0.333084
 H         2.239881        -2.257629         1.227638
 H         1.943793        -1.612654        -1.783473
