19
Iteration:  4410charge 0 multiplicity 1
 C        -0.136389         0.259973        -0.282652
 C         1.395839         0.016561        -0.259210
 O         2.161733         0.461396         0.934885
 C         2.564340         0.925376        -0.329811
 C         3.409355        -0.207657        -1.038957
 O         4.563441        -0.677753        -0.249136
 C         4.351194        -1.883561         0.392303
 C         2.819862        -2.234245         0.181023
 C         2.277441        -1.230063        -0.796068
 H        -0.611332        -0.053039        -1.262293
 H        -0.667485        -0.296884         0.622697
 H        -0.370272         1.328596        -0.053174
 H         2.569606         2.029528        -0.332802
 H         3.823733         0.161791        -1.967465
 H         5.035282        -2.738278         0.063549
 H         4.438010        -1.803812         1.496171
 H         2.810217        -3.275896        -0.148848
 H         2.287333        -2.239234         1.142578
 H         1.769078        -1.734491        -1.662983
