19
Iteration:  4673charge 0 multiplicity 1
 C         0.037686         0.122849        -0.161728
 C         1.454982        -0.005960        -0.192879
 O         2.241472         0.431487         0.967404
 C         2.626069         0.881256        -0.369713
 C         3.462255        -0.189111        -1.053240
 O         4.518894        -0.778812        -0.358425
 C         4.032762        -1.572552         0.663054
 C         2.797967        -2.299978        -0.027539
 C         2.223808        -1.154018        -0.881447
 H        -0.381505        -0.295419        -1.034021
 H        -0.151252        -0.523718         0.679317
 H        -0.245695         1.118578        -0.001068
 H         2.700053         1.993859        -0.463732
 H         3.918446         0.068064        -2.084936
 H         4.668292        -2.333769         1.155669
 H         3.700871        -0.906395         1.430192
 H         3.137248        -3.164461        -0.690378
 H         2.125651        -2.801508         0.644967
 H         1.602922        -1.319854        -1.829340
