19
Iteration:  3117
 C         0.079648         0.033855         0.098774
 C         1.474717         0.109290        -0.280200
 O         2.295137         0.570803         0.796366
 C         2.669067         0.992629        -0.553276
 C         3.545704        -0.184243        -1.030451
 O         4.466891        -0.660739        -0.057382
 C         3.986209        -1.883488         0.529502
 C         2.657552        -2.332852        -0.102107
 C         2.246789        -1.153308        -0.865015
 H        -0.390991        -0.952375        -0.086839
 H         0.059993         0.065690         1.130787
 H        -0.479057         0.891098        -0.272830
 H         2.550869         1.990543        -1.057742
 H         3.778397         0.016489        -2.079886
 H         4.759123        -2.720908         0.376317
 H         3.885200        -1.736929         1.624417
 H         2.808270        -3.385243        -0.542318
 H         1.996477        -2.762602         0.670341
 H         1.792486        -1.265621        -1.882855
