19
Iteration:   878
 C        -0.125159         0.405898        -0.346082
 C         1.372092         0.000290        -0.196759
 O         1.956042         0.258007         1.161781
 C         2.586999         0.826261        -0.009705
 C         3.461812        -0.087200        -0.927438
 O         4.750097        -0.856737        -0.651299
 C         4.234935        -1.797015         0.425939
 C         2.847310        -2.270106         0.054158
 C         2.291120        -1.042818        -0.856550
 H        -0.906953        -0.400264        -0.208992
 H        -0.350471         1.071264         0.469172
 H        -0.080269         0.891237        -1.351938
 H         2.670764         1.932923         0.026061
 H         3.653274         0.465271        -1.852434
 H         4.925937        -2.579239         0.448159
 H         4.298346        -1.316784         1.440584
 H         3.027688        -3.071464        -0.636796
 H         2.279583        -2.711138         0.887571
 H         2.017765        -1.468473        -1.841866
