19
Iteration:  4641
 C        -0.130607         0.185284        -0.238200
 C         1.386000        -0.009005        -0.184572
 O         2.080642         0.574023         0.939036
 C         2.619540         0.910146        -0.280487
 C         3.485110        -0.196823        -0.965673
 O         4.640165        -0.838919        -0.465130
 C         4.232475        -1.756074         0.573455
 C         2.810725        -2.323454         0.028489
 C         2.280622        -1.163711        -0.761347
 H        -0.547474        -0.380203        -1.057240
 H        -0.542608        -0.224101         0.685279
 H        -0.451639         1.218210        -0.187905
 H         2.748037         2.009573        -0.461959
 H         3.819078         0.259164        -1.968325
 H         4.915271        -2.586450         0.848988
 H         4.105901        -1.107138         1.414413
 H         3.132964        -3.141600        -0.660683
 H         2.151500        -2.681295         0.782615
 H         1.795965        -1.217157        -1.769945
