19
Iteration:   914charge 0 multiplicity 1
 C         0.059282         0.121022        -0.264698
 C         1.459252         0.138178        -0.260699
 O         2.046173         0.116530         1.102591
 C         2.704995         0.898989        -0.040217
 C         3.481430        -0.076992        -1.017851
 O         4.625853        -0.718790        -0.460207
 C         4.129000        -1.879499         0.355761
 C         2.654707        -2.085131         0.136260
 C         2.266144        -0.989471        -0.934065
 H        -0.249407        -0.903793         0.006749
 H        -0.437449         0.973045         0.305132
 H        -0.386260         0.222615        -1.284713
 H         2.960230         1.971402         0.036646
 H         3.606820         0.424498        -2.000298
 H         4.651865        -2.800457         0.092265
 H         4.374740        -1.590507         1.414432
 H         2.473092        -3.096022        -0.341279
 H         2.103583        -1.969183         0.996347
 H         1.958719        -1.455964        -1.924812
