19
Iteration:  2418
 C        -0.027377         0.443267        -0.568297
 C         1.392983         0.003269        -0.188944
 O         2.035187         0.314776         1.117954
 C         2.574519         0.882216        -0.035572
 C         3.353850        -0.204481        -0.871094
 O         4.560829        -0.623639        -0.351334
 C         4.424458        -2.073274         0.076925
 C         2.877004        -2.160443         0.272971
 C         2.211531        -1.198681        -0.741409
 H         0.195353         1.146086        -1.409169
 H        -0.695207        -0.349965        -1.028464
 H        -0.556920         1.110852         0.062997
 H         2.732161         1.971567        -0.046882
 H         3.452554         0.149523        -1.935545
 H         4.751266        -2.642340        -0.787826
 H         5.013902        -2.145204         0.992724
 H         2.576599        -3.259220         0.089153
 H         2.497324        -1.927740         1.257741
 H         1.673911        -1.748947        -1.509889
