19
Iteration:  4823charge 0 multiplicity 1
 C        -0.149845         0.338191        -0.424796
 C         1.381473        -0.004229        -0.359682
 O         2.013735         0.392526         1.025526
 C         2.570946         0.849670        -0.237492
 C         3.465088        -0.230228        -0.962748
 O         4.661975        -0.684635        -0.361624
 C         4.393815        -1.952300         0.248160
 C         2.815025        -2.077980         0.462920
 C         2.250550        -1.220393        -0.778325
 H        -0.634084        -0.139057        -1.356127
 H        -0.649524        -0.080518         0.586645
 H        -0.186786         1.431403        -0.433766
 H         2.496199         1.922011        -0.501603
 H         3.558667         0.088716        -2.004377
 H         4.919056        -2.663181        -0.419931
 H         4.868745        -1.972519         1.270131
 H         2.489656        -3.177981         0.361211
 H         2.500316        -1.579391         1.371575
 H         1.965962        -1.920198        -1.599607
