19
Iteration:  4771charge 0 multiplicity 1
 C        -0.062424         0.122384        -0.387059
 C         1.362224        -0.044734        -0.098034
 O         2.220349         0.685959         0.927886
 C         2.519464         0.934452        -0.409337
 C         3.425834        -0.195204        -0.973563
 O         4.586704        -0.696580        -0.284473
 C         4.289122        -1.989629         0.413143
 C         2.796761        -2.254257         0.201354
 C         2.235694        -1.135096        -0.687026
 H        -0.275044         0.296483        -1.419519
 H        -0.496765        -0.894268        -0.202082
 H        -0.509742         0.900826         0.165347
 H         2.664591         2.012960        -0.490572
 H         3.562342         0.023071        -2.073375
 H         5.007991        -2.560161        -0.267525
 H         4.535706        -2.058730         1.462380
 H         2.710700        -3.243564        -0.375583
 H         2.171442        -2.324105         1.097635
 H         1.783202        -1.555837        -1.625287
