19
Iteration:  4274charge 0 multiplicity 1
 C        -0.044869         0.286881        -0.221754
 C         1.423554        -0.008278        -0.225667
 O         2.221837         0.384722         1.044902
 C         2.564516         0.836743        -0.417296
 C         3.373829        -0.216844        -1.071495
 O         4.570814        -0.656100        -0.279339
 C         4.249827        -1.772629         0.593989
 C         2.806450        -2.253553         0.018890
 C         2.219925        -1.174410        -0.849804
 H        -0.365466        -0.201568        -1.212014
 H        -0.645852        -0.403266         0.477889
 H        -0.394417         1.354295        -0.356183
 H         2.493334         1.914633        -0.475920
 H         3.803044         0.025526        -2.089207
 H         4.989436        -2.649921         0.458781
 H         4.292221        -1.368112         1.644446
 H         3.066473        -3.262729        -0.383408
 H         2.093115        -2.430993         0.897064
 H         1.734706        -1.340209        -1.857096
