19
Iteration:  3660charge 0 multiplicity 1
 C        -0.052576         0.264910        -0.329001
 C         1.458815        -0.020744        -0.117635
 O         2.203168         0.536197         1.035425
 C         2.533945         0.854792        -0.471096
 C         3.406908        -0.247658        -0.922187
 O         4.497682        -0.547551        -0.035376
 C         4.320034        -1.989522         0.178792
 C         2.793749        -2.327182         0.044040
 C         2.240739        -1.110891        -0.765286
 H        -0.298962        -0.119806        -1.313547
 H        -0.571430        -0.307946         0.436356
 H        -0.446414         1.265943        -0.265175
 H         2.380215         1.941288        -0.584485
 H         3.690508        -0.125566        -1.948146
 H         5.024987        -2.522550        -0.483650
 H         4.832567        -2.097173         1.136990
 H         2.516717        -3.335320        -0.433421
 H         2.347371        -2.479184         1.017295
 H         1.756718        -1.442045        -1.686676
