19
Iteration:  2609
 C        -0.078669         0.391353        -0.156992
 C         1.427361        -0.008158        -0.164651
 O         2.290998         0.393943         1.062501
 C         2.585248         0.898074        -0.236733
 C         3.478725        -0.189896        -1.029283
 O         4.455615        -0.599027        -0.139790
 C         4.137116        -1.900416         0.454022
 C         2.878554        -2.437442        -0.329772
 C         2.194825        -1.120087        -0.867542
 H        -0.830720        -0.324631        -0.659377
 H        -0.387768         0.423703         0.907143
 H        -0.086391         1.443361        -0.562157
 H         2.581931         2.003092        -0.295142
 H         3.830511        -0.225258        -2.066796
 H         4.936424        -2.578220         0.282224
 H         4.078112        -1.861534         1.561927
 H         3.241056        -3.085444        -1.160793
 H         2.225672        -3.065027         0.364290
 H         1.851895        -1.376311        -1.880915
