19
Iteration:  2802
 C        -0.001095         0.105661        -0.069980
 C         1.470810         0.000649        -0.156849
 O         2.237754         0.534224         0.984518
 C         2.600221         0.997250        -0.287073
 C         3.540334        -0.111019        -1.013383
 O         4.586436        -0.812245        -0.349765
 C         3.982781        -1.835889         0.552080
 C         2.735410        -2.381225        -0.135361
 C         2.250920        -1.074021        -0.896531
 H        -0.403282         1.122351        -0.339025
 H        -0.265212        -0.665733        -0.747978
 H        -0.383576        -0.191645         0.931984
 H         2.688349         2.041143        -0.587859
 H         3.775970         0.134773        -2.065087
 H         4.740927        -2.634341         0.761077
 H         3.793190        -1.197970         1.383420
 H         2.876869        -3.227486        -0.778758
 H         1.982931        -2.446187         0.603684
 H         1.924821        -1.233472        -1.959249
