19
Iteration:  1847
 C        -0.025102         0.196271        -0.211390
 C         1.451186         0.074186        -0.231357
 O         2.027498         0.436026         1.068205
 C         2.582389         0.979386        -0.166274
 C         3.511046        -0.159050        -0.898621
 O         4.565895        -0.637654        -0.218288
 C         4.270114        -2.027401         0.286851
 C         2.786916        -2.312438        -0.120346
 C         2.284868        -1.105331        -0.916053
 H        -0.341380        -0.787841         0.313029
 H        -0.572255         1.006000         0.371584
 H        -0.648307         0.271495        -1.114570
 H         2.664551         2.082794        -0.220513
 H         3.851094         0.292318        -1.834643
 H         4.987639        -2.653766        -0.174532
 H         4.420061        -2.158877         1.423030
 H         2.664246        -3.207667        -0.760975
 H         2.026286        -2.508177         0.676403
 H         1.981815        -1.182724        -1.911852
