19
Iteration:   529charge 0 multiplicity 1
 C        -0.035108         0.410400        -0.293372
 C         1.423044        -0.060242        -0.005723
 O         2.257296         0.326199         1.087765
 C         2.556749         0.902852        -0.199369
 C         3.403919        -0.172859        -1.001790
 O         4.491054        -0.544084        -0.146067
 C         4.186552        -1.821665         0.405871
 C         2.870368        -2.474660        -0.320688
 C         2.242992        -1.184075        -0.898150
 H        -0.632288        -0.457353        -0.211454
 H        -0.301904         1.121735         0.461309
 H        -0.076418         0.897604        -1.221891
 H         2.581707         2.009582        -0.438507
 H         3.785225         0.064474        -2.021054
 H         5.014480        -2.405490         0.372095
 H         3.905045        -1.604338         1.479422
 H         3.044108        -3.193511        -1.099609
 H         2.276632        -3.093396         0.430659
 H         1.514440        -1.381079        -1.773204
