19
Iteration:  1315
 C        -0.116193         0.313910        -0.090345
 C         1.386978         0.032627        -0.092123
 O         2.135367         0.623858         0.979501
 C         2.526077         0.988550        -0.412720
 C         3.436368        -0.123188        -0.773284
 O         4.276086        -0.679521         0.192487
 C         4.403958        -2.155494         0.037450
 C         3.035253        -2.467259        -0.330567
 C         2.317181        -1.124689        -0.817724
 H        -0.693955        -0.626779        -0.009419
 H        -0.401611         1.250830         0.551668
 H        -0.285855         0.551932        -1.182262
 H         2.522773         2.017718        -0.821701
 H         3.829168        -0.009233        -1.833604
 H         5.172021        -2.505273        -0.738471
 H         4.821870        -2.585270         0.906992
 H         2.998834        -3.219129        -1.248811
 H         2.452966        -2.741955         0.597786
 H         1.977850        -1.137443        -1.920746
