19
Iteration:  3495
 C        -0.069392         0.369818        -0.233130
 C         1.408306        -0.032992        -0.298024
 O         2.012481         0.297980         1.005884
 C         2.630473         0.869328        -0.285373
 C         3.477464        -0.226609        -1.095918
 O         4.621976        -0.696856        -0.439767
 C         4.258315        -1.754931         0.481941
 C         2.825278        -2.171689         0.227149
 C         2.257528        -1.210947        -0.827520
 H        -0.673647         0.114660        -1.069941
 H        -0.470246        -0.261995         0.580717
 H        -0.088833         1.414956         0.019086
 H         2.630136         1.959165        -0.183312
 H         3.672720         0.064218        -2.141780
 H         4.904589        -2.623231         0.231995
 H         4.339051        -1.464945         1.566979
 H         2.609804        -3.229354        -0.039321
 H         2.379162        -2.128794         1.210401
 H         1.954360        -1.899907        -1.599799
