19
Iteration:  3520charge 0 multiplicity 1
 C        -0.093607         0.521605        -0.379845
 C         1.320158        -0.131470        -0.210165
 O         2.046017         0.378292         0.976250
 C         2.519862         0.914658        -0.276808
 C         3.395698        -0.184991        -0.880653
 O         4.615397        -0.673383        -0.472400
 C         4.486039        -1.864887         0.399244
 C         2.879102        -2.328645         0.252782
 C         2.231140        -1.272223        -0.743578
 H        -0.471790         0.269764        -1.461106
 H        -0.838770         0.119133         0.310526
 H        -0.018016         1.636136        -0.305156
 H         2.381870         2.042923        -0.304792
 H         3.528790         0.196175        -1.956108
 H         5.111245        -2.634676        -0.130647
 H         4.810814        -1.757388         1.432208
 H         2.614299        -3.367615         0.092882
 H         2.461349        -2.153237         1.243113
 H         1.840226        -1.814469        -1.643637
