19
Iteration:  1653
 C         0.018895         0.488986        -0.284711
 C         1.386056        -0.142268        -0.275044
 O         2.060469         0.279465         1.041594
 C         2.515082         0.843780        -0.175768
 C         3.440023        -0.138940        -0.866968
 O         4.460701        -0.563604        -0.096507
 C         4.352079        -1.975617         0.108835
 C         2.886286        -2.304937         0.031646
 C         2.293762        -1.144549        -0.898481
 H        -0.697420        -0.068873         0.312051
 H         0.147949         1.382020         0.292157
 H        -0.542460         0.916852        -1.192305
 H         2.331780         1.888764        -0.282992
 H         3.789427         0.159387        -1.886592
 H         4.899840        -2.538416        -0.636157
 H         4.720207        -2.096389         1.187408
 H         2.595838        -3.338957        -0.357897
 H         2.422237        -2.138782         1.059331
 H         2.146168        -1.473934        -2.007796
