19
Iteration:  1125charge 0 multiplicity 1
 C        -0.033067         0.445017        -0.389197
 C         1.409868        -0.010007        -0.120739
 O         2.063234         0.068081         1.168461
 C         2.574015         0.836902        -0.024241
 C         3.446355        -0.162935        -0.962982
 O         4.714579        -0.782774        -0.592681
 C         4.171809        -1.642444         0.502245
 C         2.865821        -2.191709        -0.036623
 C         2.178157        -1.132261        -0.891395
 H        -0.703463        -0.479447        -0.473191
 H        -0.425233         1.217155         0.246784
 H         0.032018         0.864287        -1.425498
 H         2.697331         1.930236         0.188464
 H         3.561769         0.378623        -1.908747
 H         4.839711        -2.478121         0.657909
 H         4.135797        -1.044496         1.446104
 H         3.088292        -3.018909        -0.661251
 H         2.179864        -2.478721         0.804489
 H         1.660963        -1.514580        -1.739682
