19
Iteration:  3065charge 0 multiplicity 1
 C         0.018579         0.342496        -0.163248
 C         1.440683         0.013888        -0.112258
 O         2.265604         0.659910         0.924660
 C         2.526790         0.934905        -0.448934
 C         3.408127        -0.278995        -1.013973
 O         4.492297        -0.677023        -0.206252
 C         4.183197        -1.874831         0.497102
 C         2.845195        -2.507287        -0.172845
 C         2.201598        -1.243580        -0.666206
 H        -0.566704        -0.587897        -0.416481
 H        -0.389063         0.687250         0.801947
 H        -0.171096         1.212180        -0.789523
 H         2.657564         2.037363        -0.690649
 H         3.466972        -0.150598        -2.093823
 H         5.112618        -2.431506         0.567382
 H         3.885665        -1.780588         1.522309
 H         3.112218        -3.041740        -1.103473
 H         2.425234        -3.195783         0.612177
 H         1.716136        -1.437420        -1.662529
