19
Iteration:  2638
 C         0.010842         0.215457        -0.304423
 C         1.436155         0.044017        -0.119861
 O         2.161567         0.470732         1.102700
 C         2.556722         0.967206        -0.142662
 C         3.461982        -0.118957        -0.900910
 O         4.592322        -0.767789        -0.316608
 C         4.210829        -1.962615         0.324199
 C         2.752636        -2.351697        -0.185962
 C         2.198865        -1.028535        -0.813028
 H        -0.437961        -0.569415        -0.904933
 H        -0.394360         0.167674         0.683527
 H        -0.341593         1.158766        -0.735490
 H         2.685803         2.084514        -0.131904
 H         3.785261         0.019611        -1.979703
 H         4.986062        -2.761829         0.037132
 H         4.239410        -1.839983         1.427602
 H         2.748448        -3.259322        -0.835004
 H         2.205351        -2.505918         0.706063
 H         1.790789        -1.246780        -1.852122
