19
Iteration:  2661
 C        -0.085226         0.162270        -0.295839
 C         1.459147         0.046090        -0.142193
 O         2.032873         0.427752         1.106164
 C         2.618391         0.968080        -0.058970
 C         3.518951        -0.053590        -0.879361
 O         4.677003        -0.837007        -0.508056
 C         4.163299        -1.995321         0.282025
 C         2.666831        -2.239624         0.062480
 C         2.367399        -0.994202        -0.910882
 H        -0.348629        -0.596568        -1.073579
 H        -0.533079        -0.113342         0.596633
 H        -0.534034         1.131962        -0.648301
 H         2.762494         2.096136        -0.114312
 H         4.000427         0.569123        -1.694736
 H         4.670544        -2.940155        -0.063517
 H         4.455845        -1.794172         1.347738
 H         2.539972        -3.224199        -0.470285
 H         2.040919        -2.097427         0.941364
 H         1.949012        -1.538221        -1.804020
