19
Iteration:  2191
 C        -0.060975         0.059890        -0.181499
 C         1.478543         0.064667        -0.245781
 O         2.221417         0.122608         0.999371
 C         2.661324         0.979160        -0.119440
 C         3.496604        -0.049560        -0.913749
 O         4.646965        -0.668431        -0.341457
 C         4.025205        -1.809018         0.494404
 C         2.648373        -2.200433        -0.066684
 C         2.247268        -1.019142        -1.014967
 H        -0.360443        -0.683195         0.568770
 H        -0.540717         1.022482         0.142999
 H        -0.438339        -0.095755        -1.169642
 H         2.952733         2.048183         0.150538
 H         3.710398         0.291769        -1.924830
 H         4.898600        -2.609776         0.382471
 H         4.035131        -1.367340         1.494734
 H         2.884895        -2.981287        -0.809717
 H         1.836008        -2.303369         0.591548
 H         2.040764        -1.232041        -2.108298
