19
Iteration:    90charge 0 multiplicity 1
 C        -0.037396         0.251040        -0.505147
 C         1.400004        -0.062162        -0.092166
 O         2.232947         0.157848         1.170737
 C         2.568248         0.884389         0.040792
 C         3.476172         0.001629        -0.887543
 O         4.638239        -0.696365        -0.480375
 C         4.171063        -1.851034         0.408544
 C         2.742491        -2.223815        -0.082576
 C         2.207714        -1.042086        -0.904341
 H        -0.278616         1.342295        -0.248626
 H        -0.007069         0.133732        -1.603838
 H        -0.887783        -0.366381        -0.156417
 H         2.506915         2.006810         0.206286
 H         3.681330         0.546781        -1.808216
 H         4.873385        -2.638268         0.319852
 H         4.147468        -1.459159         1.471832
 H         2.749092        -3.139795        -0.650217
 H         2.098009        -2.273945         0.829498
 H         1.711012        -1.372799        -1.857848
