19
Iteration:  1729charge 0 multiplicity 1
 C        -0.006105         0.082997        -0.414425
 C         1.434542         0.073221        -0.189745
 O         1.849181         0.490380         1.154832
 C         2.503541         0.995177        -0.061417
 C         3.573148        -0.089452        -0.821004
 O         4.685342        -0.819553        -0.229404
 C         4.282125        -2.166460        -0.088294
 C         2.768626        -2.102085         0.065733
 C         2.362701        -0.968192        -0.789539
 H        -0.319565        -0.896590        -0.167018
 H        -0.554326         0.753790         0.154299
 H        -0.281769         0.355865        -1.441267
 H         2.375782         2.070774        -0.126591
 H         3.924334         0.531371        -1.665938
 H         4.444298        -2.731006        -1.058292
 H         4.878498        -2.763507         0.748845
 H         2.388130        -3.156215         0.216277
 H         2.563219        -1.722549         1.132894
 H         1.868480        -1.403730        -1.730350
