19
Iteration:  3280
 C        -0.064148         0.243107        -0.427629
 C         1.426569         0.053945        -0.248508
 O         2.034767         0.358073         1.134629
 C         2.598437         0.960947        -0.077292
 C         3.453929        -0.115289        -0.986219
 O         4.654482        -0.896881        -0.654416
 C         4.285417        -1.851327         0.422003
 C         2.773322        -2.119993         0.326314
 C         2.225201        -1.150138        -0.826685
 H        -0.283066         0.110067        -1.542105
 H        -0.658544        -0.605382        -0.111316
 H        -0.403148         1.174677         0.061668
 H         2.769468         2.021454        -0.246332
 H         3.607401         0.243912        -2.037573
 H         4.835457        -2.806888         0.264522
 H         4.726908        -1.410532         1.329942
 H         2.788554        -3.219355         0.238577
 H         2.224468        -1.877213         1.210231
 H         1.843345        -1.601052        -1.765458
