19
Iteration:  3969charge 0 multiplicity 1
 C        -0.052118         0.126211        -0.446871
 C         1.394234         0.040927        -0.169780
 O         2.244853         0.497827         0.962249
 C         2.541097         0.966440        -0.367025
 C         3.382158        -0.154930        -0.902120
 O         4.523441        -0.597082        -0.165729
 C         4.316445        -2.006355         0.205816
 C         2.817966        -2.281771         0.199929
 C         2.235567        -1.169124        -0.648282
 H        -0.143023         0.392072        -1.524839
 H        -0.628160        -0.744402        -0.182719
 H        -0.477823         1.020955         0.086958
 H         2.252733         2.056892        -0.415090
 H         3.622995        -0.236488        -1.966644
 H         4.917985        -2.670879        -0.452986
 H         4.709846        -2.010469         1.248388
 H         2.576816        -3.230925        -0.237425
 H         2.296303        -2.294676         1.178247
 H         1.823669        -1.273286        -1.654818
