19
Iteration:  4318charge 0 multiplicity 1
 C         0.012120         0.311250        -0.158405
 C         1.452946        -0.015208        -0.255277
 O         2.166400         0.314250         0.948543
 C         2.538192         0.899035        -0.333467
 C         3.423338        -0.233977        -1.075542
 O         4.569777        -0.728355        -0.384899
 C         4.110730        -1.616770         0.708575
 C         2.851813        -2.265767         0.070754
 C         2.294928        -1.248740        -0.958682
 H        -0.561009         0.618256        -1.061157
 H        -0.498790        -0.587308         0.344964
 H        -0.042800         1.096835         0.671291
 H         2.617267         1.974237        -0.469439
 H         3.684436         0.083441        -2.131322
 H         5.025400        -2.253683         0.862601
 H         3.792091        -1.038159         1.617339
 H         3.003700        -3.230181        -0.475977
 H         2.014218        -2.613328         0.791769
 H         1.846104        -1.718777        -1.879354
