19
Iteration:  3672charge 0 multiplicity 1
 C        -0.035783         0.227478        -0.320889
 C         1.393270         0.011867        -0.073406
 O         2.253806         0.570553         0.981656
 C         2.531980         0.956711        -0.339274
 C         3.436085        -0.199197        -0.986628
 O         4.413771        -0.586648        -0.091692
 C         4.365043        -1.922504         0.274687
 C         2.815120        -2.424649         0.007004
 C         2.189533        -1.222879        -0.744279
 H        -0.287126        -0.202522        -1.297800
 H        -0.743078        -0.197194         0.326693
 H        -0.095972         1.307610        -0.364514
 H         2.698060         1.937111        -0.743018
 H         3.855349        -0.121541        -1.984669
 H         4.930007        -2.528865        -0.452576
 H         4.598761        -2.102323         1.317045
 H         2.857987        -3.242288        -0.749524
 H         2.303411        -2.641814         0.924941
 H         1.718887        -1.392476        -1.731927
