19
Iteration:  2268charge 0 multiplicity 1
 C        -0.101608         0.330460        -0.113164
 C         1.409384         0.052272        -0.169652
 O         2.127432         0.429375         1.030395
 C         2.529984         1.006419        -0.277320
 C         3.414362        -0.142954        -0.931860
 O         4.594040        -0.640570        -0.082165
 C         4.237188        -2.005906         0.396009
 C         2.900580        -2.435585        -0.336175
 C         2.245735        -1.138209        -0.886278
 H        -0.512873        -0.613576        -0.497440
 H        -0.435211         0.668666         0.856098
 H        -0.512930         1.117946        -0.721191
 H         2.674335         2.121644        -0.422159
 H         3.791757         0.004642        -1.940240
 H         5.049006        -2.768171         0.104341
 H         4.458465        -1.993961         1.422171
 H         3.104467        -3.109216        -1.197851
 H         2.257187        -3.009247         0.246277
 H         1.817072        -1.362055        -1.913775
