19
Iteration:  4371charge 0 multiplicity 1
 C         0.026219         0.030771        -0.323391
 C         1.470893         0.011572        -0.188675
 O         2.193921         0.574164         1.015511
 C         2.574301         1.011442        -0.238381
 C         3.463057        -0.171206        -1.085033
 O         4.564822        -0.787645        -0.395656
 C         4.113358        -1.761861         0.502986
 C         2.800697        -2.286461         0.144299
 C         2.198174        -1.150161        -0.759667
 H        -0.332627         0.283123        -1.317631
 H        -0.312766        -0.899831        -0.137040
 H        -0.345054         0.896999         0.177985
 H         2.647898         2.003674        -0.636332
 H         3.603295        -0.101802        -2.187355
 H         4.950729        -2.427962         0.344339
 H         4.213332        -1.520641         1.561582
 H         2.711952        -3.199449        -0.518759
 H         2.223210        -2.577144         1.035064
 H         1.607722        -1.573708        -1.589034
