19
Iteration:  1389
 C        -0.047520         0.150753        -0.403994
 C         1.400462         0.080897        -0.255315
 O         2.056473         0.205334         1.077478
 C         2.612709         0.852685         0.014929
 C         3.497632        -0.050220        -0.856418
 O         4.601357        -0.659095        -0.188803
 C         4.208070        -2.038084        -0.002649
 C         2.732034        -2.103055         0.164167
 C         2.340391        -0.965105        -0.907900
 H        -0.524996        -0.332165         0.487418
 H        -0.455931         1.218885        -0.398891
 H        -0.285778        -0.413966        -1.307321
 H         2.745165         1.939883         0.067837
 H         3.832917         0.442944        -1.773729
 H         4.478236        -2.531526        -0.979619
 H         4.746034        -2.514914         0.861722
 H         2.332549        -3.001078        -0.161281
 H         2.482703        -1.715081         1.161500
 H         2.061836        -1.300523        -1.925190
