19
Iteration:   718charge 0 multiplicity 1
 C         0.080553         0.077630        -0.205097
 C         1.556308        -0.032943        -0.056794
 O         2.338980         0.390660         1.030440
 C         2.648353         0.981632        -0.297518
 C         3.406845        -0.091455        -1.022966
 O         4.387329        -0.629742        -0.210807
 C         3.980675        -1.817691         0.526620
 C         2.756806        -2.375475        -0.191509
 C         2.239047        -1.054768        -0.945443
 H        -0.426710        -0.795505         0.028645
 H        -0.269682         0.778861         0.532454
 H        -0.190170         0.458500        -1.163605
 H         2.717692         2.076721        -0.450941
 H         3.863807         0.151713        -2.007240
 H         4.803053        -2.566371         0.436584
 H         3.813576        -1.571522         1.557675
 H         3.111549        -3.197360        -0.901449
 H         2.051130        -2.916263         0.407327
 H         1.747453        -1.162914        -1.960163
