19
Iteration:  3651charge 0 multiplicity 1
 C        -0.055638         0.242446        -0.291730
 C         1.431799         0.036749        -0.142697
 O         2.126246         0.494371         0.953361
 C         2.544552         0.917530        -0.426050
 C         3.478739        -0.173597        -0.933017
 O         4.526090        -0.538619        -0.026229
 C         4.305842        -2.080058         0.109341
 C         2.790529        -2.257436         0.101753
 C         2.256194        -1.223887        -0.718255
 H        -0.418657        -0.097669        -1.277480
 H        -0.553426        -0.406209         0.360831
 H        -0.311387         1.273351        -0.067960
 H         2.408552         1.975089        -0.567272
 H         3.795294        -0.067670        -1.986022
 H         4.833129        -2.639130        -0.699886
 H         4.631255        -2.326673         1.114930
 H         2.697692        -3.277253        -0.176928
 H         2.396745        -2.025151         1.081033
 H         1.922561        -1.562193        -1.722034
