19
Iteration:  2552charge 0 multiplicity 1
 C         0.019205         0.072014         0.071780
 C         1.440794         0.046315        -0.230551
 O         2.289700         0.422543         0.975424
 C         2.716342         0.947682        -0.325917
 C         3.505214        -0.100224        -0.959243
 O         4.544990        -0.776952        -0.216635
 C         3.889943        -1.759108         0.621647
 C         2.789439        -2.285289        -0.314717
 C         2.187547        -1.088085        -1.042481
 H        -0.371973        -0.508424        -0.789324
 H        -0.129822        -0.375732         1.024736
 H        -0.403833         1.108838        -0.002524
 H         2.746914         2.041159        -0.546129
 H         3.961140         0.161951        -1.935040
 H         4.560537        -2.569775         0.842096
 H         3.469015        -1.246952         1.502525
 H         3.080224        -3.116306        -1.050820
 H         2.067346        -2.767356         0.336954
 H         1.952959        -1.385162        -2.095000
