19
Iteration:   799charge 0 multiplicity 1
 C        -0.102947         0.288164        -0.177838
 C         1.431987        -0.018987        -0.213886
 O         2.108324         0.318858         1.047773
 C         2.623786         0.917441        -0.166369
 C         3.465083        -0.091053        -0.937245
 O         4.622772        -0.694334        -0.341643
 C         4.134474        -1.853798         0.461263
 C         2.804772        -2.315981        -0.157621
 C         2.300656        -1.103427        -0.909309
 H        -0.489892        -0.385366         0.602420
 H        -0.246819         1.348351        -0.012713
 H        -0.580896        -0.061957        -1.112107
 H         2.680354         1.988394        -0.146014
 H         3.845954         0.251278        -1.895211
 H         4.894641        -2.679273         0.355913
 H         4.065863        -1.529174         1.475935
 H         3.089093        -3.074437        -0.855107
 H         2.021862        -2.601548         0.632848
 H         1.993952        -1.449177        -1.857770
