19
Iteration:  1750charge 0 multiplicity 1
 C        -0.155151         0.173807        -0.419710
 C         1.369949         0.014444        -0.222879
 O         1.960690         0.412865         1.014806
 C         2.586323         1.022827        -0.046996
 C         3.556054        -0.007347        -0.688939
 O         4.678868        -0.708780        -0.183789
 C         4.264018        -2.202749        -0.144111
 C         2.793901        -2.198741         0.172945
 C         2.369687        -1.026100        -0.823431
 H        -0.619278        -0.621551         0.146430
 H        -0.592305         1.063729        -0.049800
 H        -0.544151         0.137147        -1.404077
 H         2.662720         2.096281        -0.012231
 H         3.752276         0.340250        -1.722954
 H         4.429351        -2.696168        -1.122343
 H         4.941615        -2.640371         0.702200
 H         2.406871        -3.236306         0.005166
 H         2.775042        -1.965543         1.274560
 H         2.002032        -1.382536        -1.751768
