19
Iteration:   647
 C         0.007411         0.404158        -0.268347
 C         1.429040        -0.016059        -0.151821
 O         2.013712         0.303389         1.103755
 C         2.592704         0.849254        -0.162628
 C         3.447225        -0.157617        -0.917935
 O         4.654969        -0.680392        -0.363203
 C         4.210628        -1.818520         0.426117
 C         2.850063        -2.378740        -0.157493
 C         2.199787        -1.112748        -0.887302
 H        -0.601297         0.271955         0.696062
 H        -0.093117         1.505527        -0.489500
 H        -0.422877        -0.107578        -1.153121
 H         2.671351         1.945523        -0.093344
 H         3.586605         0.326233        -1.890948
 H         5.008580        -2.558050         0.356636
 H         4.086024        -1.497557         1.535235
 H         3.112352        -3.144194        -0.855083
 H         2.245378        -2.963796         0.600174
 H         1.729924        -1.319567        -1.844992
