19
Iteration:  2143
 C        -0.045185         0.420822        -0.294743
 C         1.352896         0.001753        -0.153145
 O         2.029943         0.358562         1.037791
 C         2.486718         0.900175        -0.109945
 C         3.406856        -0.087204        -0.868472
 O         4.626688        -0.618779        -0.183243
 C         4.374275        -1.954501         0.219742
 C         2.886583        -2.442481        -0.154228
 C         2.259686        -1.203648        -0.831731
 H        -0.696831         0.071598         0.522319
 H        -0.096708         1.527414        -0.263362
 H        -0.398403         0.175567        -1.337003
 H         2.426498         1.949680        -0.153387
 H         3.672808         0.345767        -1.846014
 H         5.076208        -2.544499        -0.321257
 H         4.582948        -2.045614         1.318717
 H         2.878076        -3.160422        -0.951475
 H         2.360548        -2.726940         0.777278
 H         1.888172        -1.381422        -1.822958
