19
Iteration:   102
 C         0.027281         0.186170        -0.386336
 C         1.450751         0.004920        -0.142268
 O         2.058840         0.075330         1.088646
 C         2.633492         0.932780         0.030887
 C         3.460727        -0.049939        -0.920429
 O         4.638489        -0.763852        -0.448843
 C         4.176350        -1.773582         0.409326
 C         2.709010        -2.102359        -0.045582
 C         2.249031        -0.998984        -0.948392
 H        -0.341444         1.257553        -0.146943
 H        -0.188517         0.038480        -1.480447
 H        -0.555941        -0.567933         0.226184
 H         2.909510         1.976423         0.326314
 H         3.748139         0.459149        -1.837264
 H         4.808905        -2.591005         0.186894
 H         4.280337        -1.547910         1.522229
 H         2.773652        -3.075298        -0.592893
 H         1.967661        -2.355486         0.812356
 H         1.825942        -1.305937        -1.945669
