19
Iteration:  1692charge 0 multiplicity 1
 C        -0.100416         0.246600        -0.530490
 C         1.396640         0.104663        -0.192587
 O         2.130867         0.309082         1.090242
 C         2.579571         0.916954        -0.059099
 C         3.489152        -0.106053        -0.825694
 O         4.586022        -0.627845        -0.213855
 C         4.306167        -2.021116         0.020379
 C         2.746083        -2.251993         0.119994
 C         2.243356        -1.070957        -0.708629
 H        -0.463657        -0.814804        -0.502881
 H        -0.618062         0.764484         0.335309
 H        -0.290551         0.487239        -1.544721
 H         2.758783         2.000758        -0.062190
 H         3.648885         0.101858        -1.896630
 H         4.625818        -2.538729        -0.923524
 H         4.929461        -2.391790         0.849685
 H         2.586119        -3.178844        -0.413803
 H         2.470966        -2.174182         1.186194
 H         1.819199        -1.298344        -1.646617
