19
Iteration:  4120charge 0 multiplicity 1
 C        -0.074160         0.328603        -0.220852
 C         1.449527        -0.027028        -0.279330
 O         2.065023         0.420816         1.017902
 C         2.627285         0.874888        -0.301974
 C         3.394260        -0.215938        -1.039210
 O         4.577209        -0.777503        -0.454991
 C         4.155524        -1.625579         0.660847
 C         2.862885        -2.309224         0.052293
 C         2.302022        -1.241206        -0.835398
 H        -0.572553         0.438086        -1.218891
 H        -0.477578        -0.515672         0.315508
 H        -0.133572         1.185930         0.476988
 H         2.644708         1.946527        -0.475632
 H         3.583101        -0.168830        -2.123417
 H         5.055563        -2.208951         0.863261
 H         4.099577        -1.170144         1.610071
 H         3.269327        -3.033051        -0.638172
 H         2.282624        -2.800369         0.794763
 H         2.224117        -1.713725        -1.779932
