19
Iteration:  1316charge 0 multiplicity 1
 C        -0.112123         0.317434        -0.092675
 C         1.379510         0.041275        -0.087268
 O         2.127486         0.621250         0.972190
 C         2.527993         0.987735        -0.408315
 C         3.428277        -0.126247        -0.775449
 O         4.284897        -0.676593         0.196053
 C         4.414708        -2.155669         0.033297
 C         3.032993        -2.479058        -0.333845
 C         2.307518        -1.123009        -0.811728
 H        -0.691204        -0.595584         0.009750
 H        -0.375781         1.236192         0.539313
 H        -0.240074         0.546159        -1.195670
 H         2.525314         2.040786        -0.794110
 H         3.807618        -0.000962        -1.837356
 H         5.187691        -2.529996        -0.758957
 H         4.821690        -2.561291         0.947601
 H         3.025245        -3.264263        -1.269005
 H         2.465721        -2.719675         0.596696
 H         1.981118        -1.137269        -1.917054
