19
Iteration:  2867charge 0 multiplicity 1
 C         0.056478         0.130737         0.040707
 C         1.462378        -0.077138        -0.224385
 O         2.302268         0.486272         0.872490
 C         2.604645         0.917336        -0.386867
 C         3.498885        -0.160869        -1.030649
 O         4.570280        -0.621736        -0.181437
 C         3.960969        -1.811729         0.581895
 C         2.663206        -2.340013        -0.172397
 C         2.298261        -1.119121        -0.954785
 H        -0.084713         0.565793         1.096770
 H        -0.412652         0.899395        -0.560472
 H        -0.540255        -0.828767         0.026464
 H         2.667385         1.932163        -0.713206
 H         3.882755        -0.078561        -2.047982
 H         4.766534        -2.596538         0.670282
 H         3.580293        -1.492481         1.533900
 H         2.753697        -3.273804        -0.781763
 H         2.002849        -2.425690         0.670196
 H         1.759309        -1.330090        -1.924750
