19
Iteration:  4905
 C        -0.083149         0.107300        -0.512122
 C         1.414605         0.067101        -0.123673
 O         2.158085         0.724666         0.949519
 C         2.498842         0.930231        -0.413734
 C         3.437156        -0.183462        -0.896538
 O         4.556969        -0.657338        -0.107705
 C         4.310552        -2.085874         0.086482
 C         2.869961        -2.285383         0.293659
 C         2.264288        -1.172804        -0.581944
 H        -0.199784         0.147773        -1.570999
 H        -0.581392        -0.708934        -0.017842
 H        -0.628667         1.017821        -0.139905
 H         2.221290         1.988133        -0.719011
 H         3.618584        -0.335777        -1.960667
 H         4.653395        -2.602246        -0.868504
 H         4.970990        -2.446766         0.895311
 H         2.557264        -3.244891         0.067644
 H         2.465390        -2.058788         1.314780
 H         1.802924        -1.672393        -1.407916
