19
Iteration:  1034
 C         0.070923         0.109309        -0.075817
 C         1.474781         0.054937        -0.212999
 O         2.341016         0.637178         1.010463
 C         2.556169         0.946596        -0.339076
 C         3.469173        -0.145349        -0.872080
 O         4.364735        -0.598491         0.072567
 C         4.177797        -1.954290         0.295585
 C         2.716681        -2.486087        -0.459649
 C         2.228632        -1.140098        -0.842129
 H        -0.114669        -0.502560         0.854485
 H        -0.481935         1.154967         0.114556
 H        -0.567683        -0.361228        -0.881694
 H         2.539825         1.958091        -0.684868
 H         4.025554         0.016501        -1.810899
 H         5.043311        -2.564649        -0.110195
 H         4.209061        -2.136829         1.464686
 H         2.874289        -3.201405        -1.310761
 H         2.105695        -2.836278         0.266229
 H         1.609882        -1.082281        -1.868065
