19
Iteration:  2305charge 0 multiplicity 1
 C         0.030515         0.364591        -0.199279
 C         1.441961        -0.028843        -0.129385
 O         2.178239         0.401164         1.039867
 C         2.507567         0.941956        -0.289450
 C         3.385482        -0.121230        -0.955758
 O         4.386776        -0.564056         0.116212
 C         4.379772        -2.033251         0.130743
 C         2.831476        -2.394162        -0.136745
 C         2.275779        -1.169043        -0.969940
 H        -0.504258        -0.462243        -0.642527
 H        -0.446464         0.492018         0.783015
 H        -0.051543         1.302598        -0.801551
 H         2.390722         1.988373        -0.434805
 H         3.808576         0.039844        -1.986449
 H         4.903398        -2.358096        -0.827332
 H         4.654718        -2.516434         1.119906
 H         2.832243        -3.316865        -0.670712
 H         2.176519        -2.303251         0.808446
 H         1.825949        -1.307179        -1.953933
