19
Iteration:  3351charge 0 multiplicity 1
 C         0.014049         0.258945        -0.178201
 C         1.477471         0.019248        -0.110017
 O         2.307961         0.444046         0.930658
 C         2.560816         0.916057        -0.449483
 C         3.374862        -0.195866        -1.009737
 O         4.473705        -0.596203        -0.134881
 C         4.141735        -1.868530         0.442468
 C         2.814368        -2.382112        -0.017112
 C         2.244905        -1.191489        -0.879781
 H        -0.533714        -0.259551        -0.933411
 H        -0.512031        -0.122574         0.752674
 H        -0.085542         1.364034        -0.217506
 H         2.460647         1.999091        -0.593725
 H         3.775347         0.120611        -1.975136
 H         4.981284        -2.478231         0.032360
 H         4.241535        -1.796552         1.594867
 H         2.689794        -3.267826        -0.696479
 H         2.085421        -2.636246         0.827349
 H         1.721450        -1.489532        -1.823942
