19
Iteration:  3976charge 0 multiplicity 1
 C        -0.095750         0.167069        -0.429330
 C         1.440515        -0.029775        -0.169517
 O         2.285176         0.475963         0.947728
 C         2.519616         0.971245        -0.320677
 C         3.412393        -0.206438        -0.953586
 O         4.543831        -0.558448        -0.142632
 C         4.296936        -1.937403         0.287710
 C         2.818741        -2.284853         0.212022
 C         2.161212        -1.146728        -0.736168
 H        -0.336505         0.415548        -1.508029
 H        -0.681924        -0.745548        -0.237100
 H        -0.358094         1.113159         0.077412
 H         2.445749         2.076371        -0.296919
 H         3.530816        -0.334705        -2.084606
 H         4.762396        -2.546699        -0.579190
 H         4.750595        -2.174592         1.242965
 H         2.689852        -3.235431        -0.374627
 H         2.341726        -2.355729         1.168373
 H         1.816371        -1.609385        -1.689216
