19
Iteration:  3256
 C        -0.007469         0.389874        -0.482325
 C         1.403742        -0.005068        -0.130398
 O         2.074572         0.303894         1.054271
 C         2.637182         0.855708        -0.159666
 C         3.312657        -0.252001        -1.004736
 O         4.611212        -0.752111        -0.570410
 C         4.355785        -1.747449         0.358238
 C         2.759973        -2.185479         0.301531
 C         2.222633        -1.201724        -0.673886
 H         0.021939         0.721682        -1.556090
 H        -0.817910        -0.387260        -0.735945
 H        -0.376210         1.159029         0.254067
 H         2.892509         1.918199        -0.269844
 H         3.406525         0.048438        -2.101386
 H         5.117154        -2.528771         0.301099
 H         4.523573        -1.358922         1.389200
 H         2.911133        -3.240817         0.037358
 H         2.299853        -2.210699         1.280248
 H         1.696755        -1.534504        -1.573496
