19
Iteration:  3545charge 0 multiplicity 1
 C        -0.006798         0.386384        -0.529846
 C         1.361763         0.000361        -0.099124
 O         1.978073         0.496298         1.134134
 C         2.610933         0.822732        -0.284358
 C         3.322731        -0.297690        -0.923999
 O         4.570405        -0.635350        -0.414616
 C         4.423253        -1.911407         0.206217
 C         2.922909        -2.240071         0.259338
 C         2.236136        -1.212236        -0.637889
 H         0.053631         0.155556        -1.655407
 H        -0.821875        -0.255515        -0.082495
 H        -0.280427         1.483281        -0.459560
 H         2.609879         1.885038        -0.365115
 H         3.382721         0.055984        -1.975137
 H         4.877697        -2.709706        -0.422573
 H         4.959848        -1.983565         1.181183
 H         2.782220        -3.218623        -0.206521
 H         2.456698        -2.373845         1.302536
 H         1.613024        -1.715943        -1.429660
