19
Iteration:   796
 C        -0.109992         0.242466        -0.164801
 C         1.453585         0.000516        -0.280403
 O         2.095374         0.326586         1.060334
 C         2.642668         0.932207        -0.153157
 C         3.470999        -0.087494        -0.930188
 O         4.629851        -0.710875        -0.344072
 C         4.121445        -1.829543         0.462204
 C         2.790234        -2.320705        -0.147191
 C         2.319170        -1.105330        -0.902389
 H        -0.415707        -0.363046         0.640159
 H        -0.226407         1.312847         0.052327
 H        -0.730358        -0.011144        -1.002402
 H         2.641768         2.049721        -0.158282
 H         3.834399         0.234077        -1.927941
 H         4.879770        -2.686341         0.309789
 H         4.048813        -1.566403         1.497680
 H         3.010404        -3.146590        -0.894592
 H         2.006709        -2.571344         0.586361
 H         1.956900        -1.421067        -1.897931
