19
Iteration:  3438charge 0 multiplicity 1
 C         0.050043         0.000493        -0.094358
 C         1.554522         0.035653        -0.088463
 O         2.271368         0.627088         0.974698
 C         2.640460         0.985336        -0.420755
 C         3.422925        -0.211104        -1.088325
 O         4.555419        -0.826613        -0.383486
 C         3.997837        -1.668109         0.676443
 C         2.706690        -2.413052        -0.039264
 C         2.188767        -1.080241        -0.937598
 H        -0.146126         0.173977        -1.124876
 H        -0.256341        -1.005526         0.246993
 H        -0.535840         0.689249         0.516031
 H         2.661875         2.050992        -0.578623
 H         3.807434         0.035416        -2.055360
 H         4.790154        -2.390111         0.946985
 H         3.708648        -1.144297         1.651033
 H         3.078761        -3.165627        -0.763559
 H         1.966619        -2.704436         0.772732
 H         1.830720        -1.459424        -1.894107
