19
Iteration:  4979
 C        -0.031928         0.142175        -0.233262
 C         1.509159        -0.067706        -0.245349
 O         2.219307         0.489506         0.926693
 C         2.562136         0.924469        -0.455569
 C         3.471712        -0.227729        -1.048044
 O         4.436855        -0.549282        -0.063827
 C         4.210929        -1.967295         0.315461
 C         2.752234        -2.170070         0.193361
 C         2.289610        -1.185680        -0.832647
 H        -0.580034         0.288818        -1.154615
 H        -0.576292        -0.730843         0.363897
 H        -0.127977         1.137366         0.321593
 H         2.567831         1.947790        -0.824517
 H         3.875058         0.009733        -2.028651
 H         4.814616        -2.613392        -0.331140
 H         4.496351        -1.992581         1.329159
 H         2.497006        -3.212111         0.018645
 H         2.264925        -1.880170         1.170866
 H         1.968508        -1.699788        -1.721630
