19
Iteration:  3801
 C        -0.032584         0.133004        -0.240670
 C         1.454564         0.016551        -0.281322
 O         2.168642         0.426379         0.947699
 C         2.564898         0.955583        -0.341329
 C         3.410462        -0.101283        -0.957692
 O         4.599203        -0.696600        -0.333124
 C         4.209142        -1.878517         0.495761
 C         2.809174        -2.271293         0.126238
 C         2.246301        -1.124818        -0.818207
 H        -0.390267         0.505480        -1.223895
 H        -0.609206        -0.753321         0.166764
 H        -0.251983         0.943382         0.482636
 H         2.476375         1.999464        -0.330532
 H         3.665029         0.178659        -1.978448
 H         4.834364        -2.753717         0.229618
 H         4.335754        -1.722891         1.558990
 H         2.637547        -3.208014        -0.471584
 H         2.139013        -2.458026         0.952432
 H         1.804770        -1.484891        -1.742859
