19
Iteration:  2299charge 0 multiplicity 1
 C        -0.001861         0.387561        -0.178754
 C         1.445313        -0.086714        -0.127763
 O         2.181445         0.408496         1.028251
 C         2.503702         0.952013        -0.286562
 C         3.421994        -0.114206        -0.955004
 O         4.394047        -0.592815         0.107838
 C         4.333900        -1.984920         0.154066
 C         2.876994        -2.373873        -0.207408
 C         2.259014        -1.202156        -0.925404
 H        -0.736582        -0.309637        -0.686024
 H        -0.428486         0.539488         0.861838
 H        -0.014894         1.227870        -0.867640
 H         2.576122         2.068885        -0.486137
 H         3.875247        -0.032347        -1.943026
 H         4.950676        -2.414698        -0.623814
 H         4.673706        -2.206559         1.171063
 H         2.667809        -3.351496        -0.769080
 H         2.275605        -2.532096         0.683021
 H         1.745139        -1.301304        -1.902736
