19
Iteration:   777
 C         0.029820         0.035895        -0.009498
 C         1.430937         0.106733        -0.406394
 O         2.038428         0.386641         0.956500
 C         2.617147         0.988287        -0.106298
 C         3.571597        -0.078062        -0.897881
 O         4.623576        -0.801291        -0.347360
 C         4.095626        -1.876117         0.477921
 C         2.673116        -2.270394        -0.107088
 C         2.297488        -1.000968        -1.042453
 H        -0.015369        -0.851305         0.658750
 H        -0.277154         0.960742         0.476447
 H        -0.594353        -0.244785        -0.864161
 H         2.810338         2.048762        -0.072769
 H         3.970700         0.408679        -1.794597
 H         4.904325        -2.637830         0.644853
 H         3.904120        -1.398506         1.406653
 H         2.783459        -3.174504        -0.656751
 H         2.060389        -2.367079         0.854361
 H         2.134231        -1.304464        -2.035991
