19
Iteration:  1498
 C        -0.082056         0.507374        -0.336431
 C         1.349262        -0.026167        -0.153061
 O         2.163397         0.279690         1.022462
 C         2.529002         0.856418        -0.187844
 C         3.473785        -0.090354        -0.889285
 O         4.424503        -0.536269         0.015827
 C         4.423665        -1.997728        -0.019372
 C         2.842604        -2.337983         0.031536
 C         2.267802        -1.248233        -0.889532
 H        -0.727184        -0.364003        -0.188873
 H        -0.366676         1.291314         0.441013
 H        -0.248508         0.823020        -1.362997
 H         2.506027         1.970678        -0.270426
 H         3.925960         0.186676        -1.865456
 H         5.045835        -2.481458        -0.766143
 H         4.809940        -2.426452         0.997362
 H         2.529130        -3.358572        -0.175704
 H         2.409107        -2.234514         1.088680
 H         1.920758        -1.591834        -1.894696
