19
Iteration:  2114charge 0 multiplicity 1
 C        -0.034181         0.359315        -0.473685
 C         1.348431         0.090585        -0.013115
 O         2.051356         0.420682         1.173572
 C         2.551540         0.898592        -0.152994
 C         3.341453        -0.166907        -0.910911
 O         4.516520        -0.615677        -0.127279
 C         4.432494        -1.997872         0.063262
 C         2.923149        -2.392301        -0.106425
 C         2.242314        -1.165979        -0.731008
 H        -0.835909        -0.335504        -0.205727
 H        -0.375545         1.371358        -0.107351
 H         0.070975         0.221580        -1.547831
 H         2.694987         1.973178        -0.043369
 H         3.632085         0.138932        -1.931483
 H         5.047203        -2.472007        -0.867071
 H         4.876279        -2.216991         1.059099
 H         2.823051        -3.197578        -0.920374
 H         2.376943        -2.770917         0.766878
 H         1.798614        -1.423228        -1.746413
