19
Iteration:  2052
 C        -0.189233         0.083100        -0.336405
 C         1.388736         0.141421        -0.359462
 O         1.974651         0.290865         1.001154
 C         2.688575         0.944137        -0.041121
 C         3.523737        -0.059149        -0.772018
 O         4.685586        -0.673093        -0.054879
 C         4.260094        -2.075710        -0.141110
 C         2.756645        -2.146320         0.140984
 C         2.279952        -1.038182        -0.867946
 H        -0.407640        -0.863901         0.157133
 H        -0.428142         0.858638         0.411087
 H        -0.743198         0.439366        -1.169180
 H         2.846748         2.098439         0.036990
 H         3.920505         0.370679        -1.731588
 H         4.652645        -2.533127        -1.119152
 H         4.654585        -2.635358         0.683814
 H         2.371566        -3.172187         0.232641
 H         2.721373        -1.474389         1.021941
 H         2.206379        -1.494873        -1.857664
