19
Iteration:  2273
 C        -0.091933         0.378284        -0.120953
 C         1.384885         0.055781        -0.171927
 O         2.142653         0.414659         1.008615
 C         2.542962         0.944066        -0.285781
 C         3.417615        -0.113748        -0.934848
 O         4.566164        -0.599283        -0.045618
 C         4.258851        -2.019783         0.340360
 C         2.905695        -2.469336        -0.291959
 C         2.266481        -1.140270        -0.854619
 H        -0.596239        -0.534963        -0.466949
 H        -0.432479         0.520523         0.935740
 H        -0.482266         1.142289        -0.844984
 H         2.586954         1.978062        -0.506406
 H         3.706793         0.029001        -2.008056
 H         5.092924        -2.641020        -0.079300
 H         4.365738        -2.064607         1.487682
 H         3.033866        -3.077931        -1.189764
 H         2.144051        -3.155524         0.255136
 H         1.889727        -1.185532        -1.865913
