19
Iteration:  3842
 C        -0.107664         0.349844        -0.437542
 C         1.325495        -0.026000        -0.184308
 O         2.073140         0.512158         0.996410
 C         2.496411         0.926212        -0.279100
 C         3.412182        -0.175036        -0.862691
 O         4.633474        -0.631238        -0.292314
 C         4.396997        -2.031109         0.257786
 C         2.900803        -2.311223         0.135952
 C         2.208838        -1.182767        -0.661973
 H        -0.407575         0.003741        -1.403737
 H        -0.757559        -0.248542         0.285694
 H        -0.315963         1.366544        -0.148224
 H         2.789046         1.928148        -0.583455
 H         3.516668         0.176316        -1.952687
 H         5.144298        -2.681065        -0.303194
 H         4.821584        -2.126556         1.274611
 H         2.866160        -3.282437        -0.334839
 H         2.444965        -2.477142         1.148298
 H         1.856026        -1.675364        -1.585706
