19
Iteration:  2939charge 0 multiplicity 1
 C         0.060210         0.380635        -0.335091
 C         1.424847        -0.019071        -0.071295
 O         2.111854         0.556303         1.076721
 C         2.574791         0.902278        -0.233397
 C         3.375216        -0.216932        -1.067323
 O         4.557944        -0.751981        -0.496062
 C         4.261526        -1.890362         0.485218
 C         2.911144        -2.396992         0.061096
 C         2.169210        -1.195741        -0.754468
 H        -0.619253        -0.372724        -0.156193
 H        -0.243648         1.203305         0.366411
 H        -0.118760         0.619601        -1.373796
 H         2.351896         1.982724        -0.403408
 H         3.553143         0.146138        -2.107822
 H         4.916706        -2.752857         0.507658
 H         4.039779        -1.420868         1.461368
 H         3.061848        -3.227424        -0.621066
 H         2.198735        -2.512992         0.895102
 H         1.687081        -1.630978        -1.601751
