19
Iteration:  1822charge 0 multiplicity 1
 C        -0.075749         0.370880        -0.299093
 C         1.356841        -0.009712        -0.152479
 O         2.072281         0.367603         1.014772
 C         2.554771         0.932317        -0.189857
 C         3.450016        -0.105357        -0.900573
 O         4.551423        -0.552348        -0.097058
 C         4.343741        -2.064746         0.198489
 C         2.917814        -2.393841        -0.134923
 C         2.240467        -1.177198        -0.780525
 H        -0.804285        -0.124591         0.404436
 H        -0.184156         1.479617        -0.041758
 H        -0.550940         0.454099        -1.259685
 H         2.643906         1.992672        -0.242864
 H         3.724729         0.244132        -1.911188
 H         4.931505        -2.558878        -0.599677
 H         4.675870        -2.348259         1.141011
 H         2.792208        -3.278104        -0.739942
 H         2.349717        -2.573110         0.769555
 H         1.850091        -1.290476        -1.808006
