19
Iteration:  3594charge 0 multiplicity 1
 C        -0.095917         0.082061        -0.456592
 C         1.340406         0.008329        -0.157641
 O         2.005658         0.522899         1.012256
 C         2.584120         0.950929        -0.268595
 C         3.511690        -0.139197        -0.897993
 O         4.676165        -0.748426        -0.222075
 C         4.359056        -2.107500        -0.007735
 C         2.761992        -2.006356         0.386811
 C         2.276544        -1.121786        -0.735820
 H        -0.282908         0.351813        -1.461358
 H        -0.597425        -0.797474        -0.109013
 H        -0.480613         0.901699         0.113871
 H         2.578521         2.092573        -0.278705
 H         3.766203         0.135611        -1.911101
 H         4.380203        -2.884938        -0.808540
 H         5.024146        -2.519567         0.766388
 H         2.437705        -3.084531         0.403438
 H         2.426797        -1.531563         1.281764
 H         1.849396        -1.379257        -1.707063
