19
Iteration:   560charge 0 multiplicity 1
 C        -0.068700         0.304730        -0.221841
 C         1.383332         0.031040        -0.275007
 O         1.969256         0.329674         1.071735
 C         2.541097         0.992848        -0.073910
 C         3.499981        -0.110924        -0.864967
 O         4.669652        -0.807979        -0.380959
 C         4.282973        -1.905558         0.411927
 C         2.804188        -2.290939        -0.146347
 C         2.346376        -1.068743        -0.935727
 H        -0.506452        -0.532741         0.414928
 H        -0.151213         1.191904         0.477120
 H        -0.701012         0.457975        -1.099058
 H         2.425258         2.104682        -0.287498
 H         3.852924         0.235780        -1.850378
 H         4.945786        -2.735169         0.272370
 H         4.323650        -1.673910         1.570623
 H         2.974773        -3.076658        -0.861959
 H         2.192492        -2.754879         0.722215
 H         1.815059        -1.327854        -1.868419
