19
Iteration:  1088
 C        -0.003387         0.069787        -0.163993
 C         1.448061         0.103887        -0.357182
 O         2.139100         0.251615         1.019246
 C         2.640052         0.973421        -0.032934
 C         3.528140        -0.066902        -0.902235
 O         4.688253        -0.700046        -0.420319
 C         4.029044        -1.874569         0.430179
 C         2.634426        -2.172770        -0.015790
 C         2.280660        -1.085950        -1.009011
 H        -0.333481        -0.784587         0.440157
 H        -0.310107         0.927889         0.554701
 H        -0.591268         0.136176        -1.099229
 H         2.777737         2.036800         0.077127
 H         3.810997         0.381820        -1.871406
 H         4.676852        -2.813666         0.397523
 H         4.133967        -1.503742         1.525326
 H         2.751455        -3.210722        -0.467949
 H         1.991217        -2.179251         0.814165
 H         2.040178        -1.509668        -2.076779
