19
Iteration:  4296charge 0 multiplicity 1
 C        -0.023540         0.315299        -0.168781
 C         1.439630        -0.084047        -0.230243
 O         2.267173         0.249117         0.853703
 C         2.589370         0.861560        -0.342662
 C         3.462804        -0.194402        -1.054699
 O         4.518722        -0.584407        -0.301133
 C         4.090452        -1.646949         0.583709
 C         2.802779        -2.287094         0.108143
 C         2.231759        -1.272377        -0.844015
 H        -0.389588         0.329204        -1.231964
 H        -0.829460        -0.253479         0.458249
 H         0.004261         1.428331         0.107097
 H         2.631858         1.953326        -0.336819
 H         3.786590         0.168332        -2.080490
 H         4.979740        -2.345529         0.536524
 H         3.914419        -1.217622         1.610720
 H         3.039257        -3.268348        -0.425467
 H         2.233550        -2.670179         1.024192
 H         1.802915        -1.401323        -1.853007
