19
Iteration:   389charge 0 multiplicity 1
 C         0.040004         0.375694        -0.387501
 C         1.437991         0.015317        -0.182898
 O         2.206115         0.205820         1.125730
 C         2.558057         0.949131        -0.109917
 C         3.442676        -0.096565        -0.952085
 O         4.521418        -0.638615        -0.283822
 C         4.225086        -1.858169         0.355178
 C         2.815566        -2.364007        -0.097295
 C         2.174807        -1.132966        -0.824803
 H        -0.490104         0.431448         0.574997
 H        -0.198701         1.329298        -0.876240
 H        -0.550719        -0.406830        -0.966907
 H         2.377410         2.048878        -0.236849
 H         3.634724         0.255376        -1.982262
 H         5.029581        -2.639367         0.008150
 H         4.262881        -1.677839         1.449958
 H         2.828348        -3.210728        -0.749231
 H         2.285315        -2.749904         0.809226
 H         1.718492        -1.450762        -1.826341
