19
Iteration:  3462
 C        -0.047233         0.054448        -0.203469
 C         1.520874         0.020309        -0.247587
 O         2.346163         0.386922         0.967683
 C         2.639556         0.951858        -0.310148
 C         3.433421        -0.184866        -1.046586
 O         4.543736        -0.844524        -0.469486
 C         4.006711        -1.627675         0.611644
 C         2.727013        -2.167735         0.108974
 C         2.233600        -1.092412        -0.817936
 H        -0.378414        -0.058093        -1.215921
 H        -0.361014        -0.839387         0.387264
 H        -0.536055         0.907265         0.255741
 H         2.623128         2.018825        -0.248776
 H         3.686942         0.051568        -2.081952
 H         4.712002        -2.481402         0.766709
 H         3.884801        -1.092342         1.604266
 H         2.883937        -3.020994        -0.588041
 H         2.076255        -2.303023         0.974247
 H         1.876173        -1.639473        -1.699071
