19
Iteration:  4361charge 0 multiplicity 1
 C        -0.034182         0.061782        -0.290337
 C         1.477157         0.074679        -0.224822
 O         2.188501         0.563141         1.035673
 C         2.634460         1.006444        -0.303755
 C         3.423682        -0.233384        -1.010915
 O         4.523499        -0.782638        -0.463359
 C         4.166857        -1.778294         0.596774
 C         2.829213        -2.328830         0.086396
 C         2.217913        -1.123005        -0.815482
 H        -0.276323         0.277401        -1.321178
 H        -0.394333        -0.893373        -0.077477
 H        -0.568329         0.641961         0.457410
 H         2.592975         2.087328        -0.393432
 H         3.669453         0.031805        -2.080495
 H         4.828004        -2.623949         0.725286
 H         4.040541        -1.127979         1.479281
 H         2.991643        -3.334026        -0.403192
 H         2.166422        -2.456795         0.994294
 H         1.844529        -1.567578        -1.722874
