19
Iteration:  4447
 C        -0.085722         0.378859        -0.262598
 C         1.366798        -0.065446        -0.247017
 O         2.115651         0.386375         0.913785
 C         2.498938         0.914759        -0.384394
 C         3.458787        -0.185268        -0.982406
 O         4.566962        -0.583029        -0.108417
 C         4.347642        -1.953539         0.215078
 C         2.846372        -2.213082         0.252286
 C         2.260194        -1.314956        -0.834220
 H        -0.714549        -0.144431        -1.028963
 H        -0.511801         0.035597         0.717579
 H        -0.151587         1.502029        -0.366060
 H         2.488778         2.006638        -0.468922
 H         3.750532         0.038898        -2.030525
 H         4.985172        -2.706093        -0.319531
 H         4.779045        -1.818920         1.227625
 H         2.465802        -3.256556         0.186012
 H         2.510170        -1.647567         1.100930
 H         2.022727        -1.930529        -1.709913
