19
Iteration:  4444charge 0 multiplicity 1
 C        -0.057312         0.396138        -0.235598
 C         1.381829        -0.050889        -0.263394
 O         2.087698         0.371968         0.898700
 C         2.509728         0.908088        -0.397123
 C         3.428818        -0.214498        -0.981650
 O         4.594881        -0.565687        -0.117879
 C         4.328675        -1.921248         0.208046
 C         2.834307        -2.233627         0.239002
 C         2.283095        -1.302615        -0.804863
 H        -0.715973        -0.127120        -1.015382
 H        -0.511572        -0.063647         0.766997
 H        -0.139535         1.484321        -0.449399
 H         2.418446         1.993171        -0.394889
 H         3.743584         0.088377        -1.966616
 H         4.976253        -2.737244        -0.268051
 H         4.628522        -1.893980         1.277002
 H         2.527282        -3.298161         0.266246
 H         2.476461        -1.725119         1.099690
 H         2.029144        -1.926692        -1.709357
