19
Iteration:     5charge 0 multiplicity 1
 C        -0.065478         0.279163        -0.223578
 C         1.443111         0.000612        -0.160485
 O         2.135610         0.260264         1.034501
 C         2.632884         0.905132        -0.105054
 C         3.457353        -0.039857        -0.909424
 O         4.587218        -0.724168        -0.308784
 C         4.118282        -1.822425         0.446050
 C         2.843641        -2.338840        -0.174160
 C         2.291001        -1.069542        -0.980569
 H        -0.344653         1.256475         0.298822
 H        -0.375053         0.400737        -1.299584
 H        -0.649274        -0.589501         0.191713
 H         2.594927         2.005250        -0.069892
 H         3.822531         0.354003        -1.862961
 H         4.908335        -2.559241         0.524259
 H         3.945525        -1.473869         1.500541
 H         2.841776        -3.192761        -0.960268
 H         2.021355        -2.725675         0.598650
 H         1.889375        -1.359551        -1.969916
