19
Iteration:  2068charge 0 multiplicity 1
 C        -0.110835         0.186572        -0.338735
 C         1.405392         0.033045        -0.230142
 O         1.983689         0.325016         1.012771
 C         2.564846         0.990881        -0.093495
 C         3.583977        -0.036837        -0.799344
 O         4.595029        -0.710628        -0.054785
 C         4.340264        -2.121141        -0.111092
 C         2.793919        -2.117611         0.154180
 C         2.273249        -1.057968        -0.876748
 H        -0.576908        -0.814405        -0.176859
 H        -0.635266         0.837247         0.377633
 H        -0.388881         0.348661        -1.422257
 H         2.655570         2.042643        -0.084661
 H         3.947428         0.312134        -1.760733
 H         4.380564        -2.455080        -1.223279
 H         5.114005        -2.587256         0.570793
 H         2.397875        -3.092806        -0.162993
 H         2.667610        -1.919680         1.229504
 H         1.831072        -1.353867        -1.840586
