19
Iteration:   414
 C        -0.000256         0.072131        -0.311935
 C         1.454623        -0.068647        -0.086318
 O         2.304172         0.247705         1.089378
 C         2.694529         0.957661        -0.105116
 C         3.505082        -0.063359        -0.981736
 O         4.555728        -0.642292        -0.303627
 C         4.050547        -1.845044         0.435319
 C         2.633892        -2.185395        -0.090730
 C         2.226363        -0.997513        -0.977063
 H        -0.929449        -0.093364         0.429144
 H        -0.280018         1.085686        -0.761238
 H        -0.310224        -0.688665        -1.206835
 H         3.033663         1.998181        -0.147957
 H         3.701332         0.367729        -1.973615
 H         4.795851        -2.719252         0.026404
 H         4.151584        -1.676090         1.496047
 H         2.489220        -3.271186        -0.563865
 H         1.910640        -2.231085         0.705739
 H         1.775550        -1.227229        -1.881964
