19
Iteration:  2056
 C        -0.190617         0.092679        -0.350482
 C         1.376255         0.135294        -0.325440
 O         1.984404         0.289252         1.001860
 C         2.708724         0.972167        -0.059316
 C         3.533205        -0.049332        -0.768167
 O         4.685956        -0.685828        -0.045771
 C         4.250283        -2.068667        -0.154494
 C         2.801312        -2.148971         0.162099
 C         2.246407        -1.052375        -0.897432
 H        -0.479252        -0.901227         0.096664
 H        -0.353343         0.862284         0.393560
 H        -0.802358         0.452256        -1.236983
 H         2.665837         2.042121         0.002777
 H         3.960239         0.429378        -1.629277
 H         4.748154        -2.532538        -1.117786
 H         4.751620        -2.729582         0.641743
 H         2.325602        -3.100180         0.298955
 H         2.583737        -1.608795         1.125538
 H         2.030566        -1.468023        -1.872452
