19
Iteration:  3750charge 0 multiplicity 1
 C         0.077077         0.086680        -0.078055
 C         1.547500        -0.031024        -0.275726
 O         2.214079         0.338403         0.929931
 C         2.650518         0.961142        -0.254631
 C         3.479948        -0.175375        -1.008109
 O         4.532950        -0.760082        -0.396395
 C         3.973911        -1.536497         0.660865
 C         2.710717        -2.252606        -0.022212
 C         2.243085        -1.148293        -0.973391
 H        -0.421932         0.039283        -1.069415
 H        -0.217614        -0.772191         0.453917
 H        -0.268297         0.925270         0.543409
 H         2.748414         2.056804        -0.222354
 H         3.790203         0.019004        -2.032071
 H         4.716050        -2.331082         0.900889
 H         3.722126        -1.104997         1.636196
 H         2.931501        -3.018634        -0.810157
 H         1.991096        -2.758406         0.648569
 H         1.732419        -1.487725        -1.905499
