19
Iteration:  2470
 C        -0.071917         0.487273        -0.284879
 C         1.360408         0.044439        -0.192616
 O         2.086317         0.310159         0.935049
 C         2.576280         0.910037        -0.269316
 C         3.427881        -0.181015        -0.900725
 O         4.614968        -0.703824        -0.252099
 C         4.369649        -1.942654         0.308435
 C         2.824177        -2.315152         0.161781
 C         2.195143        -1.185374        -0.910017
 H        -0.491062         1.194075        -0.957283
 H        -0.672241        -0.400430        -0.488453
 H        -0.397455         0.721618         0.718490
 H         2.659883         2.024562        -0.316035
 H         3.813060         0.141699        -1.873850
 H         5.140344        -2.712102        -0.056337
 H         4.720190        -1.858127         1.369672
 H         2.715661        -3.290094        -0.185149
 H         2.181270        -2.098002         1.030287
 H         1.793956        -1.570132        -1.848035
