19
Iteration:  1098
 C        -0.052116         0.171750        -0.206011
 C         1.470508         0.037265        -0.349288
 O         2.087871         0.185308         1.025645
 C         2.705890         0.926888         0.010775
 C         3.484677        -0.036814        -0.950800
 O         4.602647        -0.743472        -0.503096
 C         4.093002        -1.800165         0.512523
 C         2.699610        -2.204049         0.009945
 C         2.355137        -1.057639        -0.961009
 H        -0.353234        -0.809924         0.097025
 H        -0.270049         1.030319         0.500026
 H        -0.547462         0.356092        -1.166422
 H         2.937058         1.941215         0.278194
 H         3.632542         0.540458        -1.881117
 H         4.822330        -2.637223         0.308906
 H         4.085716        -1.294985         1.531377
 H         2.633555        -3.265557        -0.447046
 H         1.937881        -2.222130         0.790795
 H         1.861421        -1.491776        -1.901126
