19
Iteration:  2591charge 0 multiplicity 1
 C         0.048449         0.433722         0.030798
 C         1.441323        -0.066639        -0.151741
 O         2.276096         0.331057         0.933097
 C         2.497556         0.879670        -0.366528
 C         3.428022        -0.101946        -0.937485
 O         4.503860        -0.660401        -0.090786
 C         4.054064        -1.880146         0.513597
 C         2.889509        -2.363411        -0.339792
 C         2.248662        -1.197337        -1.017023
 H        -0.650514        -0.208684        -0.468191
 H        -0.344286         0.550122         1.100963
 H        -0.099493         1.403781        -0.403790
 H         2.428588         1.904208        -0.639351
 H         3.868514         0.313928        -1.858998
 H         4.978347        -2.518325         0.693285
 H         3.622819        -1.659917         1.497394
 H         3.279628        -2.920214        -1.166680
 H         2.213564        -2.983667         0.262500
 H         1.799901        -1.395001        -1.998563
