19
Iteration:  3770
 C        -0.048848         0.024677        -0.156103
 C         1.488221         0.066205        -0.200625
 O         2.297873         0.290022         1.021716
 C         2.703391         0.848115        -0.363868
 C         3.466196        -0.138734        -1.141731
 O         4.570078        -0.681079        -0.339474
 C         3.997054        -1.677069         0.632903
 C         2.729830        -2.196788         0.047165
 C         2.247722        -1.087398        -0.956864
 H        -0.439347         0.174531        -1.204736
 H        -0.486961        -0.918031         0.171412
 H        -0.407560         0.861733         0.488652
 H         2.720567         1.877263        -0.174390
 H         3.706210         0.268512        -2.106085
 H         4.699205        -2.523746         0.824805
 H         3.828854        -1.110929         1.572314
 H         2.733840        -3.246837        -0.444459
 H         1.920006        -2.116250         0.754290
 H         1.711667        -1.410207        -1.860189
