19
Iteration:  1030
 C         0.048523         0.146698        -0.055691
 C         1.478509         0.038677        -0.147735
 O         2.301428         0.667828         0.995683
 C         2.562477         0.917232        -0.388995
 C         3.486078        -0.158057        -0.879425
 O         4.326449        -0.586221         0.092885
 C         4.186615        -2.001462         0.303400
 C         2.800116        -2.467900        -0.507324
 C         2.216480        -1.160782        -0.823767
 H        -0.156574        -0.424384         0.842849
 H        -0.268866         1.150106         0.062927
 H        -0.591436        -0.300102        -0.805002
 H         2.626430         1.989872        -0.687218
 H         4.035148        -0.007854        -1.829427
 H         5.072033        -2.515999        -0.238094
 H         4.148391        -2.156297         1.382672
 H         2.860095        -3.161699        -1.368348
 H         2.032584        -2.908630         0.301786
 H         1.713061        -1.060544        -1.795563
