19
Iteration:  2732charge 0 multiplicity 1
 C         0.032389         0.561925        -0.358418
 C         1.391035        -0.043374        -0.147605
 O         2.115984         0.341930         1.060119
 C         2.492524         0.833612        -0.157771
 C         3.345153        -0.148404        -1.005603
 O         4.541676        -0.678821        -0.364544
 C         4.363548        -1.957608         0.330224
 C         2.870741        -2.316312         0.099786
 C         2.233145        -1.191661        -0.777440
 H         0.094911         1.225766        -1.213366
 H        -0.566805        -0.414905        -0.598944
 H        -0.371520         1.150711         0.479111
 H         2.299390         1.903736        -0.246710
 H         3.527434         0.166089        -2.025093
 H         4.991307        -2.688234        -0.160711
 H         4.558177        -1.928913         1.394837
 H         2.890262        -3.153100        -0.621276
 H         2.316343        -2.476385         1.047041
 H         1.857563        -1.587018        -1.702203
