19
Iteration:   662charge 0 multiplicity 1
 C        -0.075404         0.516010        -0.163891
 C         1.363861         0.049861        -0.223831
 O         1.918878         0.350376         1.082905
 C         2.583140         0.945431        -0.174873
 C         3.432284        -0.155012        -0.980672
 O         4.617684        -0.747076        -0.322937
 C         4.235678        -1.900094         0.490823
 C         3.032054        -2.408267        -0.237095
 C         2.310822        -1.230939        -0.873689
 H        -0.345084         0.086171         0.738104
 H        -0.092696         1.553626         0.004494
 H        -0.864773         0.231191        -0.836175
 H         2.573478         2.000170        -0.349181
 H         3.822061         0.087043        -1.982599
 H         5.025976        -2.618299         0.548525
 H         3.962648        -1.574286         1.505964
 H         3.297952        -3.048561        -1.120709
 H         2.408143        -2.896486         0.452622
 H         1.897696        -1.612592        -1.885961
