19
Iteration:  3931charge 0 multiplicity 1
 C        -0.095167         0.101936        -0.363621
 C         1.411357         0.068142        -0.300766
 O         1.909056         0.643653         0.949768
 C         2.551389         0.981769        -0.217697
 C         3.493787        -0.238306        -0.814396
 O         4.663656        -0.689850        -0.205483
 C         4.373242        -2.092550         0.019481
 C         2.767894        -2.196474         0.249451
 C         2.326261        -1.137497        -0.653921
 H        -0.550588        -0.025417        -1.359227
 H        -0.505481        -0.719785         0.293374
 H        -0.361893         1.081973         0.040563
 H         2.704966         1.911231        -0.656514
 H         3.680560         0.201074        -1.834107
 H         4.617838        -2.896020        -0.788938
 H         4.939013        -2.367192         0.906527
 H         2.573528        -3.292069         0.169204
 H         2.545682        -1.794558         1.229826
 H         2.107505        -1.522997        -1.650940
