19
Iteration:  2858
 C         0.004504         0.079457         0.067338
 C         1.521721         0.005136        -0.269935
 O         2.365238         0.393448         0.882983
 C         2.614923         0.998620        -0.428013
 C         3.543138        -0.098045        -1.071687
 O         4.550598        -0.685195        -0.152914
 C         3.963993        -1.748657         0.578113
 C         2.613036        -2.311863        -0.129907
 C         2.249659        -1.138463        -0.952335
 H        -0.038688         0.561714         1.107063
 H        -0.604730         0.553806        -0.646229
 H        -0.366824        -0.965097         0.153758
 H         2.516069         2.028173        -0.688529
 H         4.011413         0.146730        -2.066143
 H         4.588782        -2.627157         0.823951
 H         3.643632        -1.345648         1.576099
 H         2.695255        -3.213437        -0.710910
 H         1.783702        -2.686882         0.448279
 H         1.862798        -1.543125        -1.932907
