19
Iteration:  1474
 C         0.027899         0.427109        -0.499298
 C         1.412086         0.084917        -0.106442
 O         2.015591         0.268459         1.128030
 C         2.595230         0.910889        -0.153472
 C         3.353565        -0.176000        -0.867325
 O         4.469125        -0.576612        -0.160492
 C         4.459053        -1.952897         0.017110
 C         2.868249        -2.319672         0.036440
 C         2.188253        -1.213650        -0.717485
 H        -0.725345        -0.361048        -0.517314
 H        -0.225459         1.146509         0.301930
 H         0.023661         0.931781        -1.405075
 H         2.642172         2.008046        -0.058974
 H         3.530237         0.119976        -1.921157
 H         4.907480        -2.459447        -0.820373
 H         5.064598        -2.414267         0.884840
 H         2.697379        -3.287855        -0.504351
 H         2.449555        -2.699120         1.020207
 H         1.883112        -1.511354        -1.683223
