19
Iteration:  1836charge 0 multiplicity 1
 C        -0.074825         0.299881        -0.199253
 C         1.416278         0.040799        -0.205846
 O         1.966545         0.419597         1.053872
 C         2.643696         0.915790        -0.211871
 C         3.462525        -0.166100        -0.873768
 O         4.561545        -0.655924        -0.113965
 C         4.360093        -1.949894         0.157070
 C         2.801545        -2.355072        -0.131010
 C         2.255035        -1.102677        -0.897245
 H        -0.552330        -0.599506         0.358002
 H        -0.237751         1.296985         0.329749
 H        -0.309768         0.204848        -1.267968
 H         2.757874         2.003942        -0.225263
 H         3.814108         0.107302        -1.877759
 H         5.111901        -2.588995        -0.243702
 H         4.400951        -1.928855         1.315423
 H         2.834453        -3.182698        -0.854569
 H         2.340128        -2.610723         0.860446
 H         1.875849        -1.440086        -1.807834
