19
Iteration:  4251
 C        -0.057394         0.136689        -0.281661
 C         1.432074        -0.052343        -0.231568
 O         2.093143         0.585348         0.958426
 C         2.660138         1.025880        -0.298016
 C         3.391321        -0.126100        -0.942585
 O         4.644128        -0.741452        -0.386209
 C         4.177751        -1.871542         0.442905
 C         2.792943        -2.361323         0.060224
 C         2.291266        -1.149719        -0.709421
 H        -0.639696        -0.379319        -1.129450
 H        -0.483974        -0.393975         0.604305
 H        -0.322034         1.243404        -0.335992
 H         2.628500         2.115364        -0.332657
 H         3.701264         0.086662        -1.998289
 H         4.967316        -2.703136         0.479778
 H         4.098593        -1.370064         1.445612
 H         2.876325        -3.368626        -0.522439
 H         2.193851        -2.558478         0.985305
 H         1.795052        -1.715649        -1.561078
