19
Iteration:  1081charge 0 multiplicity 1
 C         0.000613         0.036561        -0.120447
 C         1.467144         0.095195        -0.308887
 O         2.146618         0.277532         1.031195
 C         2.614462         0.969224        -0.139315
 C         3.559543        -0.072520        -0.910576
 O         4.691096        -0.729516        -0.319340
 C         4.081717        -1.882229         0.393655
 C         2.598865        -2.172289        -0.042837
 C         2.235953        -1.028999        -1.030941
 H        -0.232732        -0.853849         0.540153
 H        -0.379970         0.909467         0.413437
 H        -0.596153        -0.034865        -1.050717
 H         2.639246         2.078059        -0.194307
 H         3.887882         0.288854        -1.891971
 H         4.777458        -2.697436         0.326222
 H         4.039518        -1.661236         1.469854
 H         2.525874        -3.069178        -0.606829
 H         1.975334        -2.190046         0.867725
 H         2.131115        -1.208937        -2.081009
