19
Iteration:  2854charge 0 multiplicity 1
 C        -0.003213         0.054334         0.083492
 C         1.536119         0.052555        -0.277772
 O         2.386869         0.365797         0.884084
 C         2.621672         1.013545        -0.458898
 C         3.556443        -0.099880        -1.075969
 O         4.529376        -0.718594        -0.156505
 C         3.929992        -1.741956         0.598122
 C         2.612690        -2.302479        -0.089855
 C         2.232950        -1.134492        -0.980226
 H        -0.070082         0.553331         1.053620
 H        -0.687497         0.421619        -0.753010
 H        -0.305758        -1.019070         0.211590
 H         2.459114         2.124682        -0.505523
 H         4.026645         0.231986        -1.986410
 H         4.692735        -2.549107         0.768296
 H         3.731795        -1.278587         1.535891
 H         2.897199        -3.178889        -0.808096
 H         1.747492        -2.645283         0.494017
 H         1.883094        -1.443165        -1.969799
