19
Iteration:   758
 C        -0.031367        -0.148666        -0.071904
 C         1.483306         0.083142        -0.203244
 O         2.175525         0.333406         0.975740
 C         2.682133         1.046006        -0.253721
 C         3.590497        -0.037400        -0.986504
 O         4.614060        -0.841577        -0.298342
 C         3.966936        -1.834515         0.533698
 C         2.602891        -2.097956        -0.132394
 C         2.353032        -0.953009        -1.012006
 H        -0.130206        -1.179454         0.496263
 H        -0.441299         0.617495         0.622092
 H        -0.665674        -0.188644        -1.038521
 H         2.804438         2.109191        -0.248483
 H         3.861190         0.334020        -1.980138
 H         4.577669        -2.685326         0.416682
 H         4.004111        -1.548787         1.688881
 H         2.713137        -3.040965        -0.674448
 H         1.844103        -2.181590         0.684681
 H         1.901958        -1.125697        -2.023967
