19
Iteration:  2043charge 0 multiplicity 1
 C        -0.109175         0.129568        -0.264497
 C         1.409745         0.108320        -0.390698
 O         1.940240         0.309603         1.007342
 C         2.606223         0.935243        -0.026260
 C         3.545130        -0.078581        -0.786207
 O         4.622777        -0.666823        -0.102658
 C         4.291586        -2.099404        -0.076281
 C         2.708365        -2.082609         0.090098
 C         2.380855        -1.039182        -0.851942
 H        -0.395848        -0.915237         0.071564
 H        -0.564334         0.798726         0.434623
 H        -0.575071         0.146453        -1.276483
 H         3.087605         1.937385         0.142087
 H         3.728198         0.189536        -1.824839
 H         4.455549        -2.582852        -1.154687
 H         4.865828        -2.524273         0.773667
 H         2.295963        -3.045618         0.000633
 H         2.697799        -1.749958         1.170278
 H         2.262077        -1.344510        -1.860122
