19
Iteration:   447
 C         0.004786        -0.012472        -0.041171
 C         1.487435         0.132255        -0.340536
 O         2.047660         0.314765         0.933439
 C         2.662851         1.051505        -0.101925
 C         3.586654        -0.008300        -0.880371
 O         4.589536        -0.855061        -0.366131
 C         4.028818        -1.872650         0.549640
 C         2.686132        -2.228153        -0.172620
 C         2.329497        -0.959959        -1.005191
 H        -0.130336        -0.702803         0.895715
 H        -0.469060         1.011847         0.219089
 H        -0.590419        -0.510955        -0.944198
 H         2.883687         2.104644        -0.062093
 H         3.802248         0.291736        -1.906700
 H         4.732661        -2.854608         0.569605
 H         4.032908        -1.531457         1.582671
 H         2.802171        -3.122765        -0.910728
 H         2.051130        -2.438202         0.664813
 H         2.120083        -1.159020        -2.013228
