19
Iteration:  3448charge 0 multiplicity 1
 C         0.047214        -0.020381        -0.177941
 C         1.484453         0.074332        -0.116153
 O         2.326300         0.494983         0.977940
 C         2.618320         1.055969        -0.335960
 C         3.490682        -0.176868        -1.149986
 O         4.497935        -0.854979        -0.438802
 C         4.019477        -1.680031         0.707208
 C         2.707131        -2.302607         0.036526
 C         2.225679        -1.101501        -0.874359
 H        -0.368381        -0.027012        -1.175080
 H        -0.293136        -1.005727         0.175552
 H        -0.292384         0.829868         0.414803
 H         2.636569         2.121502        -0.572973
 H         3.822545         0.047771        -2.148137
 H         4.833630        -2.381492         0.921843
 H         3.780144        -0.953703         1.519565
 H         3.070186        -3.222905        -0.457662
 H         1.860725        -2.822922         0.612378
 H         1.518612        -1.340426        -1.719451
