19
Iteration:   744
 C        -0.016379        -0.167924        -0.150803
 C         1.480358         0.062731        -0.233765
 O         2.405989         0.375490         1.029244
 C         2.635985         1.000811        -0.199470
 C         3.588897        -0.108093        -1.031154
 O         4.544307        -0.711308        -0.256701
 C         3.949145        -1.807491         0.487059
 C         2.579298        -2.204107        -0.112177
 C         2.252413        -0.916595        -0.976653
 H        -0.268461        -1.219096         0.212865
 H        -0.600175         0.518453         0.525852
 H        -0.405013        -0.020416        -1.176076
 H         2.606640         2.093864        -0.145793
 H         4.152374         0.096828        -1.941923
 H         4.700881        -2.663179         0.564772
 H         3.719661        -1.414697         1.464213
 H         2.526459        -3.095945        -0.730876
 H         1.746821        -2.452280         0.670020
 H         1.856849        -1.106506        -1.927246
