19
Iteration:  2687
 C        -0.087135         0.193806        -0.353995
 C         1.506917         0.165975        -0.299207
 O         1.995423         0.203914         1.072194
 C         2.738259         0.937125         0.018012
 C         3.422985        -0.178349        -0.910451
 O         4.636152        -0.770333        -0.504729
 C         4.279597        -1.993189         0.282105
 C         2.709443        -2.063887         0.158743
 C         2.250048        -0.999830        -0.856406
 H        -0.506036        -0.054092        -1.351242
 H        -0.467606        -0.456716         0.536440
 H        -0.501222         1.206626        -0.123347
 H         2.814642         1.989245        -0.017040
 H         3.714266         0.309850        -1.825554
 H         4.784515        -2.863703        -0.066902
 H         4.532752        -1.711572         1.324262
 H         2.442616        -3.029357        -0.255562
 H         2.216775        -1.813631         1.164841
 H         1.889127        -1.590084        -1.662536
