19
Iteration:   425
 C        -0.070223        -0.006187        -0.272350
 C         1.502252         0.080550        -0.187160
 O         2.274638         0.261679         1.079343
 C         2.691468         0.935700        -0.102603
 C         3.547145        -0.034197        -0.963046
 O         4.619530        -0.727660        -0.305197
 C         4.039596        -1.825789         0.423935
 C         2.570531        -2.160100        -0.095573
 C         2.231715        -1.004002        -0.994589
 H        -0.434119        -0.400673         0.763878
 H        -0.512839         1.005018        -0.490690
 H        -0.345730        -0.760045        -1.126001
 H         2.645282         2.015475        -0.013209
 H         3.924220         0.336448        -1.926294
 H         4.732910        -2.776638         0.285536
 H         4.038619        -1.597049         1.491008
 H         2.607945        -3.172050        -0.654030
 H         1.967223        -2.197809         0.793405
 H         1.793856        -1.158627        -1.938038
