19
Iteration:  2981
 C        -0.110895         0.275290        -0.355867
 C         1.461303         0.107455        -0.209179
 O         2.092483         0.176632         1.096247
 C         2.753045         0.857545        -0.154356
 C         3.431207        -0.243215        -1.093842
 O         4.649365        -0.837259        -0.622727
 C         4.211605        -1.721481         0.532102
 C         2.758132        -2.025208         0.269891
 C         2.157957        -1.130263        -0.901077
 H        -0.675659        -0.641952        -0.532256
 H        -0.335608         0.554511         0.739353
 H        -0.449583         0.998319        -1.092978
 H         3.217293         1.879650         0.060947
 H         3.477592         0.212162        -2.140275
 H         4.957119        -2.509693         0.417906
 H         4.307096        -1.079695         1.517595
 H         2.600408        -3.055618         0.083384
 H         2.328862        -1.969407         1.297486
 H         1.621797        -1.603053        -1.718945
