19
Iteration:  1260
 C        -0.045660        -0.066514        -0.170507
 C         1.440468         0.090876        -0.296348
 O         2.207244         0.397029         1.011832
 C         2.592533         1.040645        -0.175402
 C         3.607166         0.012722        -0.960580
 O         4.447761        -0.708342         0.028863
 C         4.200521        -2.078360         0.158820
 C         2.693353        -2.200552        -0.090324
 C         2.298106        -0.953736        -0.955605
 H        -0.313453        -1.061132         0.252943
 H        -0.487614         0.789853         0.450659
 H        -0.552823         0.004816        -1.146928
 H         2.599491         2.115246        -0.084420
 H         4.129076         0.189068        -1.938856
 H         4.805577        -2.769461        -0.576595
 H         4.491418        -2.321553         1.163266
 H         2.275080        -3.230463        -0.472149
 H         2.083112        -2.071393         0.871454
 H         1.918771        -1.127132        -2.007175
