19
Iteration:  1603
 C        -0.020904         0.180251        -0.257942
 C         1.437376         0.027632        -0.235148
 O         2.136671         0.430393         1.034420
 C         2.592969         0.963461        -0.142235
 C         3.499588        -0.057217        -0.888646
 O         4.511482        -0.666514        -0.076933
 C         4.269914        -2.040506         0.168155
 C         2.761292        -2.262897        -0.067020
 C         2.257575        -1.123645        -0.915002
 H        -0.580182        -0.136629         0.658275
 H        -0.418359         1.191854        -0.496434
 H        -0.501825        -0.481239        -1.000707
 H         2.647294         2.049863        -0.397005
 H         3.958941         0.327023        -1.807282
 H         4.864165        -2.693851        -0.569080
 H         4.495687        -2.265557         1.188712
 H         2.505863        -3.139712        -0.656654
 H         2.239445        -2.194845         0.871026
 H         1.711456        -1.449833        -1.770376
