19
Iteration:  2180charge 0 multiplicity 1
 C        -0.052660         0.165623        -0.149475
 C         1.401910         0.032159        -0.276971
 O         2.147638         0.164611         0.963202
 C         2.616072         0.941366        -0.087416
 C         3.525908        -0.040869        -0.941351
 O         4.672355        -0.662577        -0.282235
 C         4.146364        -1.816994         0.403282
 C         2.672798        -2.257401        -0.098808
 C         2.274318        -1.006873        -0.984389
 H        -0.461282        -0.538364         0.584220
 H        -0.348112         1.230461         0.063736
 H        -0.499427        -0.230503        -1.041791
 H         2.686717         2.063179         0.105198
 H         3.902332         0.350445        -1.882709
 H         4.863335        -2.762288         0.415393
 H         3.937168        -1.582625         1.469865
 H         2.553245        -3.292506        -0.537858
 H         2.193939        -2.463665         0.819399
 H         1.906189        -1.342197        -2.001195
