19
Iteration:  4107charge 0 multiplicity 1
 C        -0.036756         0.204898        -0.278452
 C         1.404794         0.009269        -0.144397
 O         2.120035         0.486808         1.014858
 C         2.582790         0.875548        -0.321824
 C         3.474361        -0.241465        -0.992923
 O         4.617585        -0.792117        -0.438521
 C         4.171043        -1.660716         0.597371
 C         2.882407        -2.282258         0.046177
 C         2.224778        -1.203669        -0.830273
 H        -0.366945         0.172636        -1.364481
 H        -0.630690        -0.535031         0.269897
 H        -0.400459         1.189876         0.072219
 H         2.590924         1.957362        -0.539060
 H         3.718913         0.257513        -1.941109
 H         4.838228        -2.525826         0.674866
 H         4.019723        -1.070573         1.493109
 H         3.185436        -3.168531        -0.595590
 H         2.136883        -2.663984         0.710343
 H         1.535118        -1.481242        -1.637120
