19
Iteration:  2453charge 0 multiplicity 1
 C        -0.090970         0.585830        -0.335453
 C         1.355405        -0.059437        -0.293315
 O         2.055082         0.286327         1.042894
 C         2.552744         0.799002        -0.195108
 C         3.423786        -0.212661        -0.974725
 O         4.579396        -0.574671        -0.291452
 C         4.358914        -1.968616         0.266542
 C         2.818192        -2.238609         0.190834
 C         2.308097        -1.251417        -0.782490
 H         0.221303         1.416847        -1.054390
 H        -0.981640         0.023676        -0.741831
 H        -0.312604         1.012902         0.669532
 H         2.620950         1.851064        -0.222746
 H         3.575048         0.070537        -2.045343
 H         4.899616        -2.669556        -0.366048
 H         4.768244        -2.060573         1.265550
 H         2.754803        -3.315532        -0.262251
 H         2.498083        -2.143574         1.213847
 H         1.949414        -1.756676        -1.716742
