19
Iteration:  1848charge 0 multiplicity 1
 C        -0.025884         0.183890        -0.213680
 C         1.453022         0.081372        -0.231073
 O         2.036658         0.435351         1.065307
 C         2.576753         0.980639        -0.160329
 C         3.510064        -0.141932        -0.903023
 O         4.571101        -0.641489        -0.222555
 C         4.256307        -2.034011         0.299447
 C         2.785806        -2.308284        -0.125187
 C         2.288804        -1.103602        -0.914140
 H        -0.359531        -0.778293         0.302144
 H        -0.539365         0.967924         0.393087
 H        -0.659740         0.250946        -1.124474
 H         2.657667         2.099145        -0.231089
 H         3.835355         0.300729        -1.860664
 H         4.961239        -2.673560        -0.177102
 H         4.446550        -2.168715         1.455466
 H         2.655211        -3.237151        -0.744878
 H         2.024005        -2.504122         0.682045
 H         1.981469        -1.180110        -1.923536
