19
Iteration:  2308
 C         0.040019         0.344528        -0.218800
 C         1.440044         0.001358        -0.131846
 O         2.176202         0.397863         1.037183
 C         2.518640         0.924398        -0.287022
 C         3.386700        -0.132208        -0.942066
 O         4.381272        -0.549730         0.108568
 C         4.378819        -2.050760         0.098762
 C         2.804829        -2.387999        -0.096307
 C         2.285010        -1.142142        -0.973767
 H        -0.429012        -0.561272        -0.680077
 H        -0.465173         0.519721         0.831443
 H        -0.123391         1.328578        -0.737091
 H         2.301919         2.026150        -0.409088
 H         3.825232         0.134338        -1.940840
 H         4.913656        -2.370046        -0.786439
 H         4.713273        -2.621243         1.030419
 H         2.868584        -3.392181        -0.634670
 H         2.201240        -2.290177         0.872609
 H         1.885239        -1.356255        -1.973582
