19
Iteration:  4117charge 0 multiplicity 1
 C        -0.078278         0.300423        -0.234394
 C         1.461070        -0.000362        -0.248050
 O         2.074403         0.442986         1.032117
 C         2.620322         0.853840        -0.321192
 C         3.402434        -0.229769        -1.011483
 O         4.588490        -0.791445        -0.447376
 C         4.148129        -1.622930         0.644259
 C         2.855211        -2.298992         0.034608
 C         2.299592        -1.219408        -0.830280
 H        -0.556883         0.365755        -1.256089
 H        -0.495042        -0.579555         0.283287
 H        -0.160216         1.225266         0.370374
 H         2.538031         1.934084        -0.475714
 H         3.579928        -0.057583        -2.095548
 H         5.050460        -2.298018         0.708506
 H         4.149361        -1.080520         1.626908
 H         3.357908        -3.079109        -0.655230
 H         2.210869        -2.760226         0.774160
 H         2.078558        -1.820480        -1.767959
