19
Iteration:  3218
 C        -0.054280         0.530442        -0.342221
 C         1.342634        -0.104481        -0.106024
 O         2.132173         0.395591         0.995231
 C         2.571295         0.852570        -0.340104
 C         3.367514        -0.270830        -1.016265
 O         4.612821        -0.730511        -0.477708
 C         4.285693        -1.674400         0.523801
 C         2.932812        -2.397306         0.148336
 C         2.201075        -1.258791        -0.698200
 H         0.127628         1.182114        -1.209340
 H        -0.921224        -0.076113        -0.463431
 H        -0.241028         1.288239         0.389781
 H         2.580783         1.947421        -0.504552
 H         3.387361        -0.230413        -2.079566
 H         5.023852        -2.488256         0.523584
 H         4.209685        -1.115572         1.466023
 H         2.903396        -3.297352        -0.502286
 H         2.245771        -2.633631         0.999370
 H         1.869186        -1.683403        -1.658782
