19
Iteration:  1272charge 0 multiplicity 1
 C         0.012995         0.010066        -0.150937
 C         1.502358         0.081374        -0.186465
 O         2.181360         0.439151         0.971798
 C         2.598372         1.052866        -0.300626
 C         3.508775        -0.094401        -0.832997
 O         4.381873        -0.634845         0.089645
 C         4.161196        -2.055342         0.092370
 C         2.683447        -2.258611        -0.150439
 C         2.374949        -1.027503        -0.936064
 H        -0.127949        -1.012347         0.209652
 H        -0.413190         0.643967         0.684870
 H        -0.499146         0.122763        -1.116966
 H         2.628837         2.141761        -0.418069
 H         4.046514         0.284823        -1.738191
 H         4.832184        -2.564630        -0.731199
 H         4.470878        -2.409248         1.059347
 H         2.637904        -3.146004        -0.915376
 H         2.142958        -2.413483         0.816790
 H         2.023781        -1.336876        -1.963353
