19
Iteration:  2518
 C         0.058243        -0.076917        -0.156104
 C         1.522478         0.123136        -0.155293
 O         2.290506         0.523617         1.057401
 C         2.626805         1.045134        -0.317366
 C         3.513242        -0.102200        -1.006146
 O         4.555259        -0.796325        -0.288584
 C         3.971650        -1.916229         0.495027
 C         2.660962        -2.275273        -0.128218
 C         2.221368        -1.038919        -0.899276
 H        -0.232742         0.033049        -1.192481
 H        -0.259036        -1.089539         0.060046
 H        -0.599351         0.563897         0.419174
 H         2.633330         2.109064        -0.493166
 H         3.868717         0.112783        -2.045953
 H         4.739688        -2.667295         0.566084
 H         3.829894        -1.551172         1.512548
 H         2.469381        -3.282223        -0.639892
 H         2.084687        -2.123032         0.751258
 H         1.909150        -1.171526        -1.953557
