19
Iteration:  2238
 C        -0.032597         0.102872        -0.157745
 C         1.482137        -0.019838        -0.143018
 O         2.146074         0.433301         1.098889
 C         2.641459         0.944678        -0.167722
 C         3.503997        -0.038525        -0.912324
 O         4.620813        -0.764771        -0.387106
 C         3.973470        -1.808607         0.507183
 C         2.730584        -2.392418        -0.328223
 C         2.355919        -1.008410        -0.871899
 H        -0.340275        -0.948216        -0.240759
 H        -0.407990         0.462485         0.753930
 H        -0.476460         0.725341        -0.959978
 H         2.600695         1.992046        -0.412770
 H         3.806359         0.334023        -1.914220
 H         4.733841        -2.683677         0.674920
 H         3.724926        -1.248649         1.449746
 H         3.138370        -3.034859        -1.084804
 H         1.968660        -2.790076         0.389450
 H         1.991760        -1.192144        -1.881816
