19
Iteration:  3501
 C        -0.017296         0.392487        -0.258933
 C         1.335302        -0.017951        -0.291380
 O         2.006127         0.288324         0.981507
 C         2.560308         0.860848        -0.264593
 C         3.434723        -0.211269        -1.039043
 O         4.622045        -0.716665        -0.425554
 C         4.283109        -1.800721         0.425140
 C         2.860218        -2.152188         0.266394
 C         2.279423        -1.231628        -0.792552
 H        -0.651736         0.279071        -1.185764
 H        -0.459580        -0.049360         0.654783
 H        -0.047048         1.491006        -0.053916
 H         2.672921         1.944155        -0.459188
 H         3.572353         0.013833        -2.107089
 H         4.988589        -2.607111         0.211012
 H         4.569401        -1.464448         1.422903
 H         2.811311        -3.162523        -0.162619
 H         2.356228        -2.207009         1.276118
 H         2.166283        -1.796548        -1.764383
