19
Iteration:  3122
 C         0.062856        -0.005240         0.106779
 C         1.494681         0.102709        -0.286911
 O         2.335565         0.570268         0.796211
 C         2.700486         1.014073        -0.543565
 C         3.478419        -0.134483        -1.088243
 O         4.468200        -0.685389        -0.076568
 C         3.988389        -1.891009         0.606837
 C         2.635090        -2.320993        -0.059365
 C         2.254840        -1.156444        -0.931339
 H        -0.388665        -0.936657        -0.269857
 H         0.076339        -0.120289         1.275601
 H        -0.534950         0.784628        -0.378383
 H         2.618089         2.076145        -0.781367
 H         3.955563         0.143388        -2.071704
 H         4.757162        -2.560118         0.302442
 H         3.769358        -1.797054         1.669254
 H         2.673275        -3.272724        -0.535895
 H         1.963221        -2.683006         0.756562
 H         1.744233        -1.412918        -1.863238
