19
Iteration:   222
 C        -0.087853         0.227660        -0.111492
 C         1.445650        -0.022191        -0.153578
 O         2.129844         0.504892         1.027286
 C         2.486513         1.035433        -0.207797
 C         3.503016        -0.088833        -0.830633
 O         4.560356        -0.747257        -0.162695
 C         4.109768        -1.981563         0.443567
 C         2.933835        -2.444426        -0.454820
 C         2.329951        -1.055221        -0.931999
 H        -0.307482         1.156621         0.442412
 H        -0.535674         0.321400        -1.107041
 H        -0.618144        -0.566817         0.393072
 H         2.491297         2.115217        -0.336175
 H         3.974539         0.253904        -1.756248
 H         4.857542        -2.734182         0.334923
 H         3.831229        -1.785678         1.531925
 H         3.278311        -3.029209        -1.221029
 H         2.236628        -3.054348         0.135474
 H         1.963518        -1.177443        -2.007675
