19
Iteration:  2140
 C        -0.065391         0.437630        -0.327925
 C         1.363654        -0.007304        -0.150331
 O         2.030757         0.353242         1.056549
 C         2.511556         0.902748        -0.122311
 C         3.419999        -0.083886        -0.860640
 O         4.614353        -0.610260        -0.179603
 C         4.382257        -1.965846         0.197675
 C         2.903040        -2.453497        -0.168944
 C         2.234254        -1.199038        -0.783683
 H        -0.734178         0.063510         0.469962
 H        -0.115111         1.499443        -0.203722
 H        -0.423813         0.144045        -1.331089
 H         2.408228         2.017893        -0.219469
 H         3.710515         0.336672        -1.859367
 H         5.116554        -2.491168        -0.324560
 H         4.544239        -2.008946         1.259640
 H         2.884114        -3.242951        -0.929744
 H         2.340913        -2.692642         0.762054
 H         1.816562        -1.416522        -1.774704
