19
Iteration:   716
 C         0.084073         0.099676        -0.190621
 C         1.543255        -0.040844        -0.062902
 O         2.319588         0.393796         1.028152
 C         2.641980         0.977864        -0.301929
 C         3.422269        -0.110714        -1.030687
 O         4.385231        -0.630149        -0.210723
 C         3.994867        -1.821242         0.514353
 C         2.775884        -2.384882        -0.190247
 C         2.244240        -1.054915        -0.931111
 H        -0.494790        -0.777658         0.038161
 H        -0.253863         0.817096         0.533693
 H        -0.176268         0.501073        -1.186799
 H         2.662344         2.050441        -0.402860
 H         3.911371         0.120066        -1.993601
 H         4.787907        -2.512644         0.458810
 H         3.801465        -1.550751         1.619590
 H         3.108143        -3.126898        -0.961143
 H         2.051568        -2.907411         0.361805
 H         1.712345        -1.138781        -1.948182
