19
Iteration:  1438
 C        -0.072945         0.252609        -0.517754
 C         1.374249         0.009821        -0.111604
 O         1.892189         0.406811         1.228567
 C         2.514876         0.991520        -0.006554
 C         3.471885        -0.041856        -0.745826
 O         4.631482        -0.789981        -0.374766
 C         4.430636        -2.147547         0.002179
 C         2.824246        -2.161178         0.070761
 C         2.345747        -1.084366        -0.826092
 H        -0.770350        -0.544652        -0.248440
 H        -0.445628         1.095978         0.022472
 H        -0.168717         0.411556        -1.634323
 H         2.586819         2.065351        -0.073900
 H         3.811550         0.398694        -1.698843
 H         4.834036        -2.770916        -0.785725
 H         4.887176        -2.307797         0.934661
 H         2.533601        -3.123050        -0.446270
 H         2.443208        -1.849242         1.017430
 H         2.103748        -1.406721        -1.839126
