19
Iteration:  3480charge 0 multiplicity 1
 C        -0.072963         0.180404        -0.192945
 C         1.434829         0.049732        -0.211355
 O         2.153873         0.312564         0.954138
 C         2.678324         0.867731        -0.286320
 C         3.467244        -0.206952        -1.056936
 O         4.639599        -0.715149        -0.457574
 C         4.203079        -1.704652         0.557127
 C         2.683778        -2.191957         0.199171
 C         2.218869        -1.219121        -0.921838
 H        -0.472303         0.093338        -1.212839
 H        -0.521914        -0.454617         0.576832
 H        -0.439032         1.181814         0.098609
 H         2.950137         1.923963        -0.346227
 H         3.721805         0.149392        -2.049953
 H         5.023589        -2.409010         0.644686
 H         4.267754        -1.119925         1.485785
 H         2.749429        -3.240967        -0.094875
 H         1.920852        -1.969706         1.017475
 H         1.615762        -1.354732        -1.843887
