19
Iteration:  3584charge 0 multiplicity 1
 C        -0.107362         0.125372        -0.535032
 C         1.407124         0.042213        -0.156728
 O         2.077459         0.553422         1.093033
 C         2.518887         0.945950        -0.196186
 C         3.475410        -0.124735        -0.891775
 O         4.580647        -0.719285        -0.327879
 C         4.302887        -2.113626         0.085850
 C         2.819849        -2.108591         0.365320
 C         2.318673        -1.140553        -0.695979
 H        -0.194446         0.176050        -1.613528
 H        -0.583809        -0.797468        -0.298461
 H        -0.628359         0.920141        -0.031817
 H         2.651923         1.978355        -0.595091
 H         3.696515         0.089498        -1.951298
 H         4.442487        -2.688539        -0.871345
 H         5.066394        -2.370249         0.824733
 H         2.312953        -3.070640         0.193451
 H         2.620256        -1.790241         1.360625
 H         2.123458        -1.627598        -1.677239
