19
Iteration:  3954charge 0 multiplicity 1
 C        -0.035819         0.133736        -0.412249
 C         1.464643         0.015229        -0.097458
 O         2.044248         0.619727         1.022511
 C         2.532487         0.983860        -0.349587
 C         3.457371        -0.158358        -0.930591
 O         4.526457        -0.671355        -0.198605
 C         4.349593        -2.028082         0.178208
 C         2.792820        -2.299281         0.206269
 C         2.261713        -1.131237        -0.727724
 H        -0.210066         0.135893        -1.526927
 H        -0.389895        -0.894237        -0.176825
 H        -0.610772         0.980521         0.006826
 H         2.768236         1.950730        -0.743763
 H         3.711165         0.255250        -1.971407
 H         4.909043        -2.698119        -0.619819
 H         4.764087        -2.218882         1.158658
 H         2.436637        -3.307076        -0.147742
 H         2.585428        -2.131865         1.242252
 H         1.890102        -1.753499        -1.519713
