19
Iteration:  4212charge 0 multiplicity 1
 C        -0.152871         0.053721        -0.308103
 C         1.468647         0.025953        -0.123257
 O         2.035054         0.624565         0.990216
 C         2.632231         0.975926        -0.272807
 C         3.461585        -0.130039        -1.054966
 O         4.624553        -0.864313        -0.423547
 C         4.234483        -1.876083         0.530880
 C         2.854942        -2.221478         0.067309
 C         2.274091        -1.151958        -0.744090
 H        -0.455383        -0.144928        -1.300929
 H        -0.686231        -0.685864         0.321462
 H        -0.388271         1.086768        -0.168254
 H         2.906884         2.009168        -0.446322
 H         3.616286         0.168523        -2.093754
 H         4.862916        -2.733283         0.482771
 H         4.355662        -1.674617         1.602853
 H         2.845297        -3.053373        -0.574195
 H         2.197038        -2.306759         0.951783
 H         1.780823        -1.269471        -1.708695
