19
Iteration:  2533charge 0 multiplicity 1
 C         0.001372        -0.086218        -0.096085
 C         1.526064         0.073111        -0.147980
 O         2.310857         0.488924         0.970657
 C         2.669043         1.048423        -0.293727
 C         3.523115        -0.122740        -1.052237
 O         4.534151        -0.804559        -0.271361
 C         3.950326        -1.832872         0.550308
 C         2.590398        -2.268845        -0.155528
 C         2.324938        -0.978666        -0.911105
 H        -0.412007        -0.419426        -1.140558
 H        -0.108229        -0.924048         0.624394
 H        -0.487911         0.869802         0.316926
 H         2.754667         2.169960        -0.282663
 H         3.921750         0.124941        -2.029407
 H         4.700495        -2.609624         0.716034
 H         3.638872        -1.417691         1.551064
 H         2.859996        -2.983319        -0.955734
 H         1.759873        -2.843446         0.352927
 H         1.703029        -1.227122        -1.792545
