19
Iteration:  1809
 C        -0.106670         0.502293        -0.370150
 C         1.390021        -0.073049        -0.150905
 O         2.188008         0.330136         1.085456
 C         2.418264         0.933714        -0.202298
 C         3.419660        -0.112450        -0.830187
 O         4.497053        -0.570894        -0.080512
 C         4.397998        -2.034312         0.073629
 C         2.831312        -2.408728        -0.020211
 C         2.318658        -1.131370        -0.843467
 H        -0.750018        -0.020558         0.308261
 H        -0.088353         1.552901        -0.165681
 H        -0.313745         0.056592        -1.347723
 H         2.202167         2.015228        -0.293793
 H         3.786749         0.100564        -1.865978
 H         5.118128        -2.557537        -0.650578
 H         4.825042        -2.194820         1.022771
 H         2.794507        -3.257329        -0.724151
 H         2.343390        -2.713886         0.900003
 H         1.950758        -1.569624        -1.847434
