19
Iteration:  4766
 C        -0.058910         0.090823        -0.348714
 C         1.361349        -0.031712        -0.090252
 O         2.206381         0.687996         0.904541
 C         2.582518         0.964527        -0.414817
 C         3.409080        -0.190977        -0.954694
 O         4.563299        -0.712713        -0.249209
 C         4.268695        -1.986396         0.401031
 C         2.839553        -2.275385         0.181581
 C         2.234098        -1.122578        -0.746892
 H        -0.294510         0.431137        -1.438780
 H        -0.656126        -0.891841        -0.192004
 H        -0.513655         0.914583         0.310620
 H         2.601446         2.058025        -0.672576
 H         3.436211        -0.094957        -2.033389
 H         5.004128        -2.602428        -0.094446
 H         4.610128        -1.929207         1.477609
 H         2.763586        -3.234716        -0.306174
 H         2.157435        -2.377696         1.043413
 H         1.808373        -1.576226        -1.627930
