19
Iteration:  4765
 C        -0.065716         0.083371        -0.341328
 C         1.370516        -0.024482        -0.092054
 O         2.200580         0.685682         0.900974
 C         2.594646         0.973946        -0.415039
 C         3.404640        -0.191663        -0.949924
 O         4.557091        -0.713178        -0.242329
 C         4.268231        -1.982604         0.397608
 C         2.843579        -2.283237         0.174675
 C         2.235289        -1.124989        -0.756232
 H        -0.281817         0.445580        -1.402474
 H        -0.663919        -0.833438        -0.190454
 H        -0.511780         0.896367         0.333945
 H         2.583175         2.035894        -0.720706
 H         3.446623        -0.118526        -2.042229
 H         4.985248        -2.641826        -0.043491
 H         4.620300        -1.890522         1.469180
 H         2.770173        -3.219136        -0.287077
 H         2.173276        -2.386479         1.041514
 H         1.809958        -1.571444        -1.630791
