19
Iteration:  1033charge 0 multiplicity 1
 C         0.069583         0.117767        -0.072143
 C         1.474603         0.052575        -0.197833
 O         2.332094         0.645572         1.007185
 C         2.555969         0.936249        -0.351540
 C         3.473942        -0.148117        -0.871871
 O         4.354082        -0.594709         0.076976
 C         4.179636        -1.963575         0.297515
 C         2.736831        -2.481657        -0.474299
 C         2.225717        -1.148619        -0.832721
 H        -0.117528        -0.485914         0.852924
 H        -0.440820         1.170616         0.101896
 H        -0.586213        -0.346079        -0.862034
 H         2.563159         1.962449        -0.685410
 H         4.034470         0.008525        -1.811655
 H         5.067580        -2.561397        -0.154059
 H         4.196269        -2.142651         1.468935
 H         2.869072        -3.202477        -1.337980
 H         2.086358        -2.841065         0.270339
 H         1.618075        -1.067952        -1.866426
