19
Iteration:  4897charge 0 multiplicity 1
 C        -0.077358         0.148996        -0.534581
 C         1.374920         0.006289        -0.119236
 O         2.133238         0.660432         0.953803
 C         2.503293         0.951154        -0.387797
 C         3.473590        -0.264497        -0.931608
 O         4.550595        -0.647739        -0.142712
 C         4.365308        -2.055461         0.065479
 C         2.812081        -2.262626         0.321768
 C         2.251022        -1.093464        -0.492933
 H        -0.071858        -0.072355        -1.643256
 H        -0.568105        -0.601954        -0.021828
 H        -0.552546         1.047778        -0.231122
 H         2.374084         1.997382        -0.808159
 H         3.678592        -0.218790        -2.048218
 H         4.686796        -2.680886        -0.795998
 H         5.120656        -2.275094         0.889930
 H         2.440997        -3.237727        -0.040498
 H         2.606234        -2.160202         1.386323
 H         1.772751        -1.481874        -1.428335
