19
Iteration:  2413
 C        -0.047608         0.406147        -0.636801
 C         1.372100         0.015977        -0.161817
 O         2.030787         0.338466         1.144356
 C         2.588618         0.882067        -0.023552
 C         3.371278        -0.200598        -0.878751
 O         4.577485        -0.650998        -0.352818
 C         4.377113        -2.062039         0.034421
 C         2.910557        -2.176909         0.278824
 C         2.237137        -1.167812        -0.722067
 H         0.008878         1.153402        -1.432597
 H        -0.666505        -0.451196        -0.829266
 H        -0.528568         1.091690         0.135541
 H         2.796275         1.959838        -0.046580
 H         3.464032         0.126462        -1.915800
 H         4.714785        -2.710851        -0.822961
 H         4.890508        -2.106266         1.011498
 H         2.459223        -3.124163         0.124327
 H         2.512805        -1.959493         1.301009
 H         1.768421        -1.675692        -1.588531
