19
Iteration:  3143
 C         0.027617        -0.078671         0.017441
 C         1.487798         0.032080        -0.216590
 O         2.418619         0.522048         0.858900
 C         2.598679         1.025612        -0.455311
 C         3.582958        -0.278656        -1.079283
 O         4.457911        -0.727404        -0.211695
 C         3.956194        -1.791771         0.603171
 C         2.604353        -2.177462        -0.015172
 C         2.290005        -1.051263        -0.957143
 H        -0.483267        -0.845308        -0.564789
 H        -0.105619        -0.453097         1.078322
 H        -0.446240         0.884799        -0.169504
 H         2.739290         2.084737        -0.707619
 H         3.844390        -0.213069        -2.128651
 H         4.584648        -2.672344         0.646840
 H         3.840295        -1.274167         1.536024
 H         2.665111        -3.192411        -0.305305
 H         1.778778        -2.324352         0.715567
 H         1.861450        -1.190147        -1.954894
