19
Iteration:  1332charge 0 multiplicity 1
 C        -0.072381         0.373040        -0.213915
 C         1.389255         0.026845        -0.110757
 O         2.058358         0.617591         1.017455
 C         2.524489         0.984155        -0.287899
 C         3.444231        -0.182259        -0.826760
 O         4.444675        -0.632663         0.158808
 C         4.452537        -2.026560         0.007001
 C         2.927809        -2.554461        -0.328836
 C         2.219435        -1.196902        -0.802635
 H        -0.682358        -0.429073         0.261813
 H        -0.231806         1.286651         0.304801
 H        -0.568797         0.536034        -1.161060
 H         2.604972         2.045936        -0.438122
 H         4.000876        -0.045312        -1.742525
 H         5.240334        -2.258199        -0.716891
 H         4.815425        -2.569394         0.989730
 H         2.792471        -3.304803        -1.076201
 H         2.535831        -3.106225         0.524231
 H         1.675638        -1.320761        -1.705430
