19
Iteration:  3623charge 0 multiplicity 1
 C        -0.110305         0.175533        -0.273401
 C         1.395572         0.100250        -0.437746
 O         1.990885         0.498298         0.921697
 C         2.614265         0.941759        -0.272706
 C         3.496339        -0.152146        -0.846371
 O         4.533296        -0.666680        -0.111896
 C         4.345141        -2.144201        -0.013040
 C         2.794677        -2.129865         0.391515
 C         2.369749        -1.173843        -0.777058
 H        -0.820101         0.224593        -1.116265
 H        -0.316663        -0.799480         0.329365
 H        -0.322154         1.023198         0.433319
 H         2.621530         2.033356        -0.337996
 H         3.733186         0.140233        -1.897252
 H         4.419736        -2.733124        -0.935510
 H         5.061565        -2.496492         0.763910
 H         2.498121        -3.204449         0.253614
 H         2.483134        -1.569207         1.327058
 H         2.249478        -1.657545        -1.754728
