19
Iteration:  1845
 C        -0.029576         0.219948        -0.203394
 C         1.445769         0.058672        -0.231095
 O         2.009649         0.436493         1.072576
 C         2.596518         0.976430        -0.178937
 C         3.509073        -0.187896        -0.888642
 O         4.557605        -0.633942        -0.205818
 C         4.295535        -2.010225         0.263156
 C         2.786540        -2.322652        -0.111304
 C         2.279112        -1.104818        -0.915232
 H        -0.304850        -0.770547         0.315552
 H        -0.595466         1.069745         0.327009
 H        -0.603338         0.299155        -1.117019
 H         2.676858         2.040143        -0.200801
 H         3.881498         0.271167        -1.800126
 H         5.063157        -2.639130        -0.191883
 H         4.361396        -2.116382         1.324581
 H         2.696502        -3.148059        -0.795047
 H         2.057203        -2.511488         0.673209
 H         1.958872        -1.214785        -1.937452
