19
Iteration:   159charge 0 multiplicity 1
 C        -0.017220         0.244423        -0.187262
 C         1.425794         0.011528        -0.136921
 O         2.150776         0.211238         1.074784
 C         2.515355         0.926407        -0.174133
 C         3.543865        -0.025150        -0.970471
 O         4.567599        -0.694357        -0.291853
 C         4.044152        -1.883968         0.523790
 C         2.856902        -2.296260        -0.276511
 C         2.346261        -1.027925        -0.941249
 H        -0.295076         1.016267         0.577941
 H        -0.441231         0.440519        -1.247340
 H        -0.461266        -0.780503         0.150236
 H         2.460047         1.991209        -0.251655
 H         3.964923         0.409055        -1.885374
 H         4.910232        -2.552164         0.469472
 H         3.809587        -1.621094         1.573867
 H         3.084530        -3.008241        -1.178081
 H         1.956132        -2.714121         0.391109
 H         1.805409        -1.174899        -1.895197
