19
Iteration:  2519
 C         0.062684        -0.081920        -0.151045
 C         1.517171         0.123625        -0.155510
 O         2.292429         0.521041         1.058711
 C         2.629277         1.047950        -0.317827
 C         3.512135        -0.099247        -1.018338
 O         4.552802        -0.799622        -0.283935
 C         3.974085        -1.917882         0.496546
 C         2.660163        -2.275336        -0.134214
 C         2.227520        -1.035041        -0.893223
 H        -0.238176         0.014696        -1.229195
 H        -0.259884        -1.087456         0.100578
 H        -0.626067         0.586743         0.426629
 H         2.635687         2.134414        -0.490243
 H         3.875330         0.099063        -2.054718
 H         4.728209        -2.650451         0.594485
 H         3.802324        -1.513773         1.506767
 H         2.464945        -3.269444        -0.684992
 H         2.041931        -2.120453         0.750497
 H         1.929151        -1.206834        -1.956055
