19
Iteration:   373charge 0 multiplicity 1
 C        -0.092891         0.516967        -0.280947
 C         1.357123         0.011178        -0.188870
 O         1.996361         0.324072         1.053783
 C         2.564226         0.835679        -0.119292
 C         3.399345        -0.142707        -0.869518
 O         4.640256        -0.651407        -0.339154
 C         4.331816        -1.919798         0.364512
 C         2.914722        -2.394468        -0.111995
 C         2.269893        -1.197229        -0.866739
 H        -0.439669         0.818775         0.719283
 H        -0.052379         1.434170        -0.866911
 H        -0.818220        -0.126191        -0.721887
 H         2.732509         1.892904        -0.047781
 H         3.602390         0.248993        -1.885748
 H         5.075161        -2.632107         0.164635
 H         4.342873        -1.784238         1.454966
 H         3.106954        -3.154984        -0.928611
 H         2.312161        -2.834127         0.674525
 H         1.882220        -1.476868        -1.844666
