19
Iteration:  3884
 C        -0.017930         0.212238        -0.482844
 C         1.414406        -0.025281        -0.225985
 O         2.079303         0.495831         1.047165
 C         2.589182         0.801666        -0.244656
 C         3.409635        -0.141828        -0.842019
 O         4.560029        -0.579055        -0.136726
 C         4.327380        -2.024595        -0.039957
 C         2.814291        -2.082750         0.296352
 C         2.223477        -1.289905        -0.740858
 H        -0.404698        -0.354865        -1.297640
 H        -0.606641        -0.081921         0.404140
 H        -0.189847         1.274116        -0.628669
 H         2.508576         1.915552        -0.269034
 H         3.732556         0.057962        -1.866677
 H         4.612334        -2.694280        -0.912174
 H         4.970176        -2.318814         0.860797
 H         2.380406        -3.077492         0.230483
 H         2.655003        -1.578336         1.316591
 H         1.849933        -1.531345        -1.760160
