19
Iteration:  1571charge 0 multiplicity 1
 C        -0.012080        -0.106864        -0.304348
 C         1.500712         0.061760        -0.136457
 O         2.156307         0.478777         1.065815
 C         2.641919         1.045931        -0.235226
 C         3.574246        -0.017565        -0.888273
 O         4.547020        -0.711821        -0.096853
 C         4.127754        -2.063030         0.097017
 C         2.621952        -2.192714        -0.055856
 C         2.285661        -0.966444        -0.804605
 H        -0.556003        -0.579282         0.588038
 H        -0.519599         0.856694        -0.497725
 H        -0.061204        -0.774252        -1.164187
 H         2.585144         2.144562        -0.464265
 H         4.068926         0.336044        -1.812045
 H         4.641956        -2.813546        -0.611603
 H         4.530315        -2.363369         1.061844
 H         2.167421        -3.016955        -0.670413
 H         2.093183        -2.164654         0.917242
 H         1.783453        -1.348725        -1.628804
