19
Iteration:  4297
 C        -0.019766         0.319257        -0.156375
 C         1.439316        -0.090462        -0.239725
 O         2.262593         0.250245         0.851342
 C         2.600953         0.856971        -0.346713
 C         3.459917        -0.186829        -1.051267
 O         4.510697        -0.588066        -0.305991
 C         4.089332        -1.639690         0.584499
 C         2.799693        -2.298374         0.106946
 C         2.232737        -1.271249        -0.843763
 H        -0.370200         0.347455        -1.216347
 H        -0.849416        -0.292803         0.430885
 H         0.007744         1.428695         0.087683
 H         2.624640         1.949695        -0.320056
 H         3.799757         0.183436        -2.059360
 H         4.969104        -2.347177         0.562500
 H         3.942069        -1.204752         1.620231
 H         3.079162        -3.244815        -0.397425
 H         2.234477        -2.661523         1.032537
 H         1.829900        -1.367136        -1.842650
