19
Iteration:  4505charge 0 multiplicity 1
 C        -0.021710         0.019632        -0.426822
 C         1.409563         0.089275        -0.175194
 O         2.018909         0.783986         0.941010
 C         2.572155         0.993294        -0.287699
 C         3.397154        -0.220308        -0.906454
 O         4.573563        -0.710218        -0.152606
 C         4.300178        -2.118644         0.017271
 C         2.853881        -2.247976         0.316635
 C         2.307643        -1.146341        -0.624375
 H        -0.195187         0.038829        -1.489860
 H        -0.374216        -0.868216         0.018453
 H        -0.568158         0.852068         0.039378
 H         2.616754         1.972804        -0.785549
 H         3.658306        -0.045814        -2.024960
 H         4.550283        -2.736203        -0.854306
 H         5.084928        -2.243926         0.801676
 H         2.384334        -3.226018         0.115531
 H         2.481241        -2.087898         1.426688
 H         1.917137        -1.576453        -1.535999
