19
Iteration:  4754
 C        -0.103779         0.109760        -0.238533
 C         1.492497         0.043494        -0.181656
 O         2.131541         0.654079         0.897570
 C         2.630355         1.009830        -0.432576
 C         3.420901        -0.235685        -0.975473
 O         4.508818        -0.674784        -0.213693
 C         4.303124        -1.931187         0.409071
 C         2.794946        -2.352580         0.106617
 C         2.256758        -1.214117        -0.740595
 H        -0.324132         0.557427        -1.264686
 H        -0.623820        -0.863019        -0.138634
 H        -0.496987         0.830728         0.561315
 H         2.474345         1.951120        -0.946197
 H         3.878733        -0.050040        -1.948858
 H         4.873564        -2.772491         0.134268
 H         4.410482        -1.699636         1.511900
 H         2.734184        -3.275942        -0.373523
 H         2.361045        -2.384313         1.117438
 H         1.794622        -1.436981        -1.681885
