19
Iteration:   211charge 0 multiplicity 1
 C        -0.045932         0.207232        -0.187862
 C         1.434660         0.007940        -0.016982
 O         2.217626         0.441730         1.092035
 C         2.491990         1.098560        -0.241382
 C         3.502659        -0.094129        -1.001273
 O         4.503915        -0.701549        -0.100268
 C         4.080643        -2.001236         0.444597
 C         2.941946        -2.431438        -0.436369
 C         2.284654        -1.104136        -0.903628
 H        -0.302493         1.157881         0.326403
 H        -0.147462         0.401747        -1.264482
 H        -0.735917        -0.558772         0.117404
 H         2.214440         2.144667        -0.385254
 H         3.941933         0.145062        -1.975493
 H         4.988065        -2.559382         0.456394
 H         3.743861        -1.939063         1.541938
 H         3.341876        -2.724336        -1.329142
 H         2.297339        -3.228669        -0.064426
 H         1.693205        -1.204816        -1.886715
