19
Iteration:  4378
 C         0.031132         0.066007        -0.354704
 C         1.480808        -0.003632        -0.130328
 O         2.189518         0.561871         0.995750
 C         2.557845         0.960397        -0.316104
 C         3.425878        -0.168254        -1.060288
 O         4.603190        -0.736766        -0.380393
 C         4.188858        -1.793486         0.461744
 C         2.672590        -2.257621         0.152400
 C         2.248552        -1.194760        -0.716261
 H        -0.183011         0.167708        -1.463644
 H        -0.513132        -0.905738         0.096087
 H        -0.370430         0.913152         0.253872
 H         2.569951         2.056290        -0.520931
 H         3.712500         0.111704        -2.073899
 H         4.973054        -2.575201         0.231132
 H         4.182838        -1.601889         1.549274
 H         2.848759        -3.060573        -0.564219
 H         2.144903        -2.482757         1.045174
 H         1.552104        -1.452930        -1.561767
