19
Iteration:  4940
 C        -0.066081         0.108596        -0.223383
 C         1.410187         0.093142        -0.314413
 O         2.019697         0.641338         0.848079
 C         2.642907         0.939885        -0.527991
 C         3.494982        -0.219474        -0.932203
 O         4.491101        -0.638215         0.015494
 C         4.322233        -2.063532         0.150188
 C         2.817731        -2.205714         0.257928
 C         2.309137        -1.206249        -0.679123
 H        -0.732708         0.422402        -1.067724
 H        -0.415777        -0.789816         0.073174
 H        -0.165963         0.779979         0.594268
 H         2.482825         2.039383        -0.757696
 H         3.846020        -0.276374        -2.009602
 H         4.706045        -2.544146        -0.799921
 H         4.805638        -2.577777         1.058231
 H         2.491676        -3.197128        -0.067549
 H         2.609818        -2.030596         1.312449
 H         1.886948        -1.551530        -1.644737
