19
Iteration:  3539
 C        -0.061827         0.428632        -0.523297
 C         1.373321         0.035929        -0.101176
 O         1.989324         0.480642         1.111532
 C         2.531391         0.798092        -0.238808
 C         3.333846        -0.268183        -0.993135
 O         4.610595        -0.638305        -0.397727
 C         4.414238        -1.929913         0.183982
 C         2.953430        -2.263890         0.290123
 C         2.259700        -1.260419        -0.650744
 H        -0.115463         0.185407        -1.554629
 H        -0.901761        -0.074093        -0.067952
 H        -0.100313         1.491726        -0.382909
 H         2.558165         1.889985        -0.360886
 H         3.468959         0.012273        -2.043468
 H         4.990002        -2.782804        -0.225235
 H         4.634560        -1.788463         1.266979
 H         2.928144        -3.296328        -0.137619
 H         2.469240        -2.309013         1.237343
 H         1.681657        -1.617363        -1.474923
