19
Iteration:  1467
 C         0.041557         0.433222        -0.502802
 C         1.404003         0.032608        -0.106761
 O         1.982102         0.301241         1.146839
 C         2.574807         0.908342        -0.122047
 C         3.376923        -0.130460        -0.830997
 O         4.547346        -0.554960        -0.210949
 C         4.442927        -1.997377        -0.021969
 C         2.818839        -2.347461         0.053185
 C         2.206510        -1.220536        -0.686027
 H        -0.492790        -0.534118        -0.479530
 H        -0.399153         1.209878         0.222359
 H         0.048826         0.945543        -1.527320
 H         2.593622         2.009739        -0.182267
 H         3.591593         0.094579        -1.893106
 H         4.909849        -2.543815        -0.917589
 H         4.902612        -2.207803         0.989440
 H         2.662483        -3.191138        -0.603310
 H         2.334070        -2.615963         1.036595
 H         1.848223        -1.576322        -1.716908
