19
Iteration:  2296
 C        -0.025452         0.381166        -0.175382
 C         1.440829        -0.103578        -0.127825
 O         2.182888         0.412746         1.014614
 C         2.512839         0.949006        -0.287417
 C         3.448219        -0.123526        -0.934606
 O         4.393055        -0.596143         0.088986
 C         4.299168        -1.960258         0.152258
 C         2.888283        -2.374456        -0.243283
 C         2.254162        -1.196765        -0.895916
 H        -0.784280        -0.245814        -0.680169
 H        -0.407439         0.622585         0.894731
 H        -0.039312         1.279549        -0.856659
 H         2.614063         2.028713        -0.466162
 H         3.959557         0.010581        -1.928819
 H         5.057739        -2.496160        -0.491136
 H         4.704169        -2.125137         1.212413
 H         2.665729        -3.310224        -0.795295
 H         2.303366        -2.668914         0.739257
 H         1.753944        -1.348815        -1.849619
