19
Iteration:   690charge 0 multiplicity 1
 C        -0.107500         0.419126        -0.097479
 C         1.346844        -0.038244        -0.152831
 O         2.156965         0.423343         0.997023
 C         2.543378         0.906548        -0.329713
 C         3.434424        -0.143784        -0.905750
 O         4.673218        -0.678995        -0.211528
 C         4.118938        -1.879392         0.513885
 C         2.977577        -2.446193        -0.288409
 C         2.226170        -1.171471        -0.935799
 H        -0.770038        -0.340945         0.503759
 H        -0.097550         1.289121         0.646323
 H        -0.650550         0.732369        -1.025497
 H         2.571294         1.965081        -0.644478
 H         3.830270         0.094791        -1.891456
 H         4.884620        -2.692137         0.637637
 H         3.759015        -1.557992         1.535021
 H         3.351047        -3.047579        -1.114708
 H         2.328077        -3.144725         0.360848
 H         1.900968        -1.298420        -1.945913
