19
Iteration:  4764charge 0 multiplicity 1
 C        -0.074187         0.077649        -0.333704
 C         1.382283        -0.016261        -0.095154
 O         2.194010         0.682727         0.897805
 C         2.605799         0.983519        -0.415126
 C         3.400330        -0.193047        -0.945511
 O         4.550576        -0.712746        -0.235870
 C         4.268819        -1.977229         0.395225
 C         2.845771        -2.290499         0.167779
 C         2.237160        -1.128821        -0.763260
 H        -0.265981         0.455520        -1.356035
 H        -0.668013        -0.773986        -0.187427
 H        -0.506273         0.868751         0.350710
 H         2.565015         2.009351        -0.769009
 H         3.469590        -0.139026        -2.054160
 H         4.969109        -2.693424         0.002578
 H         4.624165        -1.850594         1.454990
 H         2.773950        -3.219602        -0.279187
 H         2.193983        -2.392924         1.043459
 H         1.807178        -1.566756        -1.641888
