19
Iteration:  1610
 C        -0.153334         0.239167        -0.220323
 C         1.424639         0.064573        -0.260682
 O         2.094634         0.356292         1.044373
 C         2.638202         0.931397        -0.192967
 C         3.497734        -0.107705        -0.912307
 O         4.506739        -0.673467        -0.049136
 C         4.329925        -2.016957         0.146858
 C         2.804400        -2.239653        -0.063843
 C         2.270668        -1.098389        -0.888654
 H        -0.534036        -0.033193         0.768192
 H        -0.271107         1.287706        -0.463527
 H        -0.634719        -0.248179        -1.149876
 H         2.830956         1.942190        -0.478365
 H         3.865326         0.236053        -1.898578
 H         5.060455        -2.555837        -0.440754
 H         4.447970        -2.217890         1.227791
 H         2.614583        -3.235299        -0.491576
 H         2.335039        -2.415631         0.915899
 H         1.778680        -1.283327        -1.923541
