19
Iteration:   844charge 0 multiplicity 1
 C         0.116054         0.485765        -0.425766
 C         1.407865        -0.037049        -0.055425
 O         2.159592         0.295428         1.144042
 C         2.606962         0.802956        -0.067769
 C         3.254926        -0.122530        -0.930100
 O         4.491609        -0.567750        -0.428892
 C         4.200606        -1.772700         0.413228
 C         2.962266        -2.485003        -0.093828
 C         2.172099        -1.259964        -0.827574
 H        -0.751697        -0.230830        -0.476858
 H         0.062147         1.456234         0.005719
 H         0.153453         0.796162        -1.519206
 H         2.660377         1.860710        -0.071601
 H         3.290037         0.284616        -1.948537
 H         5.098821        -2.370779         0.269886
 H         4.015687        -1.526726         1.475574
 H         3.161251        -2.952426        -1.008669
 H         2.453033        -3.173177         0.699996
 H         1.648918        -1.461176        -1.736965
