19
Iteration:  3738charge 0 multiplicity 1
 C        -0.046466         0.144176        -0.041458
 C         1.420911         0.071007        -0.282843
 O         2.206244         0.389609         0.969740
 C         2.597319         0.967532        -0.358187
 C         3.507682        -0.146176        -1.020189
 O         4.567113        -0.816878        -0.357961
 C         4.037900        -1.683939         0.657252
 C         2.820750        -2.366637        -0.083551
 C         2.297910        -1.130999        -0.916867
 H        -0.612584         0.059541        -0.996678
 H        -0.356577        -0.654409         0.591155
 H        -0.318934         1.130887         0.349409
 H         2.489498         2.033843        -0.257475
 H         3.824971         0.194582        -1.993423
 H         4.910666        -2.318734         0.953369
 H         3.714461        -0.973408         1.410020
 H         3.214996        -3.263914        -0.658592
 H         1.991938        -2.596614         0.586297
 H         2.004690        -1.371081        -1.955507
