19
Iteration:   701
 C        -0.018782         0.320880        -0.093190
 C         1.454370        -0.023665        -0.141111
 O         2.207666         0.416114         1.005728
 C         2.512094         0.922794        -0.296296
 C         3.502780        -0.186670        -1.034253
 O         4.553553        -0.673757        -0.167401
 C         4.085498        -1.838111         0.509843
 C         2.867746        -2.357854        -0.330690
 C         2.253663        -1.162860        -0.862418
 H        -0.654135        -0.633527         0.147205
 H        -0.220359         1.186777         0.609069
 H        -0.310886         0.617665        -1.140735
 H         2.405301         2.015281        -0.387331
 H         3.810841         0.050545        -2.054353
 H         4.973047        -2.512501         0.622390
 H         3.697809        -1.554595         1.533332
 H         3.169305        -3.018343        -1.133069
 H         2.198945        -2.968618         0.382771
 H         1.731370        -1.484246        -1.736484
