19
Iteration:  2579charge 0 multiplicity 1
 C        -0.014839         0.358743         0.102850
 C         1.437529        -0.104097        -0.162315
 O         2.225437         0.335001         0.933584
 C         2.582405         0.963439        -0.365696
 C         3.574264        -0.084723        -1.021727
 O         4.501033        -0.626502        -0.170347
 C         3.909304        -1.824528         0.604039
 C         2.875761        -2.473167        -0.361096
 C         2.297195        -1.132763        -0.992323
 H        -0.796585        -0.221407        -0.430205
 H        -0.136236         0.391513         1.252592
 H         0.035846         1.357958        -0.314859
 H         2.416649         2.017913        -0.414722
 H         4.000407         0.028119        -2.013186
 H         4.710074        -2.617458         0.566943
 H         3.628683        -1.513926         1.612349
 H         3.324253        -3.174311        -1.006373
 H         2.090683        -3.078378         0.188580
 H         2.028421        -1.292463        -2.024212
