19
Iteration:   537charge 0 multiplicity 1
 C        -0.024594         0.397540        -0.223556
 C         1.368154        -0.055075        -0.066400
 O         2.173079         0.347485         1.037908
 C         2.568884         0.875633        -0.231406
 C         3.431875        -0.082996        -0.940442
 O         4.541151        -0.593815        -0.216079
 C         4.201367        -1.871512         0.399250
 C         2.859139        -2.445183        -0.287718
 C         2.278549        -1.187698        -0.846064
 H        -0.842284        -0.415511        -0.196640
 H        -0.377233         1.225672         0.481590
 H        -0.066511         0.770523        -1.268771
 H         2.629111         1.978903        -0.154048
 H         3.774016         0.233516        -1.939326
 H         5.113030        -2.533229         0.399292
 H         3.929597        -1.737996         1.513034
 H         3.057060        -3.165552        -1.093533
 H         2.269412        -2.968723         0.535656
 H         1.751043        -1.346762        -1.789592
