19
Iteration:  2805charge 0 multiplicity 1
 C         0.002056         0.079199        -0.062502
 C         1.486664         0.019382        -0.167188
 O         2.248477         0.523441         0.986828
 C         2.600056         0.981928        -0.290363
 C         3.580269        -0.127916        -1.004929
 O         4.589444        -0.787976        -0.356664
 C         3.946171        -1.797621         0.549387
 C         2.712782        -2.383381        -0.129895
 C         2.233852        -1.063727        -0.924912
 H        -0.420029         1.108815        -0.203609
 H        -0.222362        -0.713981        -0.720256
 H        -0.299798        -0.271623         0.913388
 H         2.764983         1.984040        -0.564316
 H         3.852246         0.113656        -2.078988
 H         4.639976        -2.623817         0.725342
 H         3.736597        -1.147694         1.471636
 H         2.873675        -3.249388        -0.752039
 H         1.922519        -2.566048         0.727162
 H         1.874144        -1.223526        -1.965585
