19
Iteration:  1570
 C        -0.023929        -0.103622        -0.303709
 C         1.497922         0.062494        -0.136510
 O         2.158587         0.486548         1.059367
 C         2.647499         1.037812        -0.230350
 C         3.574208        -0.022400        -0.888720
 O         4.547406        -0.714375        -0.092749
 C         4.130685        -2.069838         0.100976
 C         2.626864        -2.177951        -0.059748
 C         2.275021        -0.963788        -0.808712
 H        -0.511019        -0.608441         0.622358
 H        -0.534277         0.845079        -0.502701
 H        -0.040696        -0.793910        -1.196461
 H         2.583463         2.131037        -0.411913
 H         4.065528         0.358886        -1.798619
 H         4.656340        -2.822864        -0.617566
 H         4.540293        -2.346105         1.035806
 H         2.170690        -3.018943        -0.632914
 H         2.113832        -2.194199         0.897630
 H         1.788858        -1.376283        -1.651935
