19
Iteration:    86
 C        -0.057818         0.287547        -0.529936
 C         1.378193        -0.045148        -0.085373
 O         2.258370         0.169788         1.218073
 C         2.560070         0.872033         0.030350
 C         3.464709         0.012893        -0.886608
 O         4.618272        -0.676928        -0.476562
 C         4.163829        -1.854091         0.392482
 C         2.764067        -2.275047        -0.076133
 C         2.242025        -1.076305        -0.892634
 H        -0.284693         1.276513        -0.313221
 H         0.041825         0.240095        -1.595572
 H        -0.860037        -0.329923        -0.201308
 H         2.414901         1.942127         0.031855
 H         3.682343         0.493251        -1.870256
 H         4.947538        -2.692098         0.338708
 H         4.091790        -1.416746         1.356732
 H         2.676906        -3.151437        -0.695316
 H         2.196081        -2.382655         0.782175
 H         1.758022        -1.267996        -1.840568
