19
Iteration:   547charge 0 multiplicity 1
 C        -0.063377         0.356189        -0.197655
 C         1.418351        -0.034846        -0.172680
 O         2.065367         0.346782         1.035578
 C         2.530515         0.915799        -0.205642
 C         3.469966        -0.079228        -0.870463
 O         4.612443        -0.696458        -0.301259
 C         4.183501        -1.935258         0.400370
 C         2.921129        -2.374507        -0.190155
 C         2.247750        -1.107335        -0.851454
 H        -0.856565        -0.458338         0.071671
 H        -0.143004         1.271541         0.503184
 H        -0.308806         0.725189        -1.242104
 H         2.580239         2.014238        -0.207527
 H         3.682237         0.340724        -1.863328
 H         5.059262        -2.663371         0.174982
 H         4.096001        -1.689239         1.502064
 H         3.125977        -3.081102        -1.014298
 H         2.178432        -2.794247         0.531092
 H         2.110096        -1.296153        -1.873770
