19
Iteration:  4422
 C        -0.060063         0.323845        -0.246335
 C         1.389970        -0.058311        -0.307250
 O         2.057176         0.390767         0.908913
 C         2.587344         0.881397        -0.358735
 C         3.490627        -0.193116        -0.975221
 O         4.554171        -0.578985        -0.242239
 C         4.340197        -1.904210         0.398844
 C         2.810729        -2.243846         0.264497
 C         2.215430        -1.208592        -0.806933
 H        -0.841008        -0.026824        -1.004430
 H        -0.412926        -0.176448         0.806174
 H        -0.034238         1.436702        -0.231644
 H         2.728768         1.963304        -0.515333
 H         3.656710        -0.019843        -2.039359
 H         4.866161        -2.704855        -0.267278
 H         4.989700        -1.718186         1.249012
 H         2.705297        -3.130950        -0.377049
 H         2.171816        -2.314330         1.106731
 H         1.957349        -1.790457        -1.744891
