19
Iteration:  1677
 C        -0.052718         0.323332        -0.404480
 C         1.404203         0.002142        -0.104022
 O         2.085068         0.252824         1.112859
 C         2.609841         0.945650        -0.197678
 C         3.423984        -0.080781        -0.935691
 O         4.578124        -0.602434        -0.102853
 C         4.349735        -2.015772         0.043968
 C         2.814989        -2.258092         0.101041
 C         2.184649        -1.137914        -0.873900
 H        -0.801776        -0.518447        -0.392740
 H        -0.512907         1.171263         0.100572
 H        -0.033922         0.860325        -1.454154
 H         2.528366         2.039917        -0.139906
 H         3.804698         0.368929        -1.869219
 H         4.794059        -2.630831        -0.734072
 H         4.713604        -2.259491         1.006235
 H         2.606872        -3.294051        -0.225733
 H         2.458754        -2.161432         1.122899
 H         1.878249        -1.657795        -1.834757
