19
Iteration:   669charge 0 multiplicity 1
 C        -0.123535         0.538640        -0.078114
 C         1.327039         0.018226        -0.241862
 O         1.951090         0.400736         0.988945
 C         2.553446         0.922517        -0.187109
 C         3.490100        -0.166530        -0.925075
 O         4.570825        -0.773163        -0.314606
 C         4.271512        -1.865563         0.514546
 C         3.025758        -2.460182        -0.287771
 C         2.349902        -1.205232        -0.879132
 H        -0.636913         0.047188         0.869231
 H        -0.179139         1.635501         0.231009
 H        -0.763817         0.382711        -1.000566
 H         2.674495         2.013502        -0.287621
 H         3.840803         0.145709        -1.920220
 H         5.151854        -2.518441         0.571243
 H         3.929924        -1.571602         1.615696
 H         3.356191        -3.118450        -1.057913
 H         2.370755        -3.186032         0.316553
 H         2.033295        -1.588984        -1.841026
