19
Iteration:  3105charge 0 multiplicity 1
 C         0.018801         0.137445         0.107896
 C         1.510655        -0.009326        -0.233711
 O         2.270136         0.658738         0.805698
 C         2.593108         0.936767        -0.569396
 C         3.506474        -0.264980        -0.983016
 O         4.485685        -0.640637        -0.062887
 C         4.042036        -1.917355         0.498690
 C         2.707420        -2.395093        -0.121455
 C         2.257871        -1.098882        -0.875986
 H        -0.488375        -0.793509        -0.190778
 H        -0.003886         0.308044         1.156806
 H        -0.596745         0.902592        -0.423937
 H         2.637817         2.015698        -0.795695
 H         4.109555        -0.363026        -1.905039
 H         4.906952        -2.653437         0.349741
 H         3.882494        -1.666376         1.584737
 H         2.862080        -3.056230        -1.030103
 H         1.961153        -2.603380         0.640695
 H         1.866148        -1.361676        -1.875162
