19
Iteration:   444charge 0 multiplicity 1
 C         0.013456        -0.002282        -0.065723
 C         1.470202         0.149526        -0.341239
 O         2.076755         0.286491         0.958824
 C         2.644264         1.049936        -0.112960
 C         3.585044        -0.028365        -0.886370
 O         4.587590        -0.845165        -0.363453
 C         4.027407        -1.876593         0.519542
 C         2.682494        -2.223327        -0.151921
 C         2.340168        -0.942399        -0.981138
 H        -0.122866        -0.630326         0.831404
 H        -0.589039         0.884994         0.146656
 H        -0.503269        -0.580146        -0.914420
 H         2.922370         2.130569        -0.071704
 H         3.802691         0.329990        -1.911794
 H         4.733095        -2.806132         0.579900
 H         3.999922        -1.529520         1.550450
 H         2.721980        -3.061100        -0.852437
 H         1.988557        -2.411045         0.677588
 H         2.126395        -1.236352        -2.056825
