19
Iteration:  2699
 C        -0.041892         0.326764        -0.367046
 C         1.381816         0.100876        -0.215068
 O         2.039259         0.236590         1.071842
 C         2.679934         0.839141        -0.020288
 C         3.497393        -0.096637        -0.979951
 O         4.630350        -0.739952        -0.483065
 C         4.227940        -1.901371         0.292679
 C         2.722674        -2.129383         0.231266
 C         2.269039        -1.134593        -0.897051
 H        -0.350226         0.210414        -1.402514
 H        -0.496100        -0.658127         0.089095
 H        -0.445680         1.219644         0.129013
 H         2.972248         1.862098         0.161215
 H         3.614174         0.418790        -1.920237
 H         4.693379        -2.710753        -0.256584
 H         4.715895        -1.901677         1.257545
 H         2.526492        -3.143524        -0.123397
 H         2.180243        -2.074699         1.197481
 H         1.897229        -1.559026        -1.814948
