19
Iteration:  4858
 C        -0.070838         0.327698        -0.471631
 C         1.410356        -0.030350        -0.312727
 O         1.960664         0.478700         1.013464
 C         2.527499         0.881885        -0.248730
 C         3.410222        -0.237013        -0.943756
 O         4.583800        -0.689325        -0.321752
 C         4.468880        -2.000552         0.148948
 C         2.852493        -2.097673         0.463248
 C         2.273759        -1.234284        -0.695356
 H        -0.633392        -0.093329        -1.315342
 H        -0.705490         0.153699         0.532574
 H        -0.172408         1.433169        -0.620866
 H         2.463189         1.883327        -0.575591
 H         3.721206         0.045550        -1.938238
 H         4.938423        -2.700351        -0.606043
 H         4.889733        -2.237786         1.102360
 H         2.415326        -3.151191         0.438261
 H         2.764785        -1.807294         1.519990
 H         1.998516        -1.801480        -1.608581
