19
Iteration:   726
 C         0.062359        -0.002035        -0.208793
 C         1.559212         0.032193        -0.096638
 O         2.436906         0.385788         1.038244
 C         2.646067         1.012599        -0.258027
 C         3.389557        -0.038950        -0.999147
 O         4.450290        -0.647156        -0.197610
 C         3.945038        -1.822010         0.526165
 C         2.660389        -2.327945        -0.220071
 C         2.236094        -1.106038        -0.982782
 H        -0.203111        -1.102813        -0.058800
 H        -0.448394         0.657564         0.491674
 H        -0.273464         0.242859        -1.271353
 H         2.795009         2.049155        -0.449088
 H         3.605792         0.319645        -2.022638
 H         4.707666        -2.519707         0.461360
 H         3.778355        -1.535765         1.676620
 H         2.983883        -3.234532        -0.721796
 H         2.002858        -2.634898         0.586461
 H         1.743504        -1.357409        -1.991416
