19
Iteration:    56charge 0 multiplicity 1
 C         0.070357         0.428447        -0.433342
 C         1.416999        -0.020996        -0.057018
 O         1.999216         0.321745         1.114776
 C         2.622349         0.884170        -0.019512
 C         3.340966        -0.121125        -0.890978
 O         4.554913        -0.636387        -0.390849
 C         4.290378        -1.879591         0.376183
 C         2.960853        -2.389225        -0.197701
 C         2.129522        -1.215969        -0.793188
 H        -0.096001         1.346464         0.165986
 H         0.111519         0.794189        -1.449959
 H        -0.744999        -0.269744        -0.317374
 H         2.689458         1.988052        -0.059646
 H         3.528331         0.267033        -1.893631
 H         5.109327        -2.596739         0.211768
 H         4.286567        -1.619096         1.445389
 H         3.122709        -3.020402        -1.011552
 H         2.473261        -3.007987         0.495504
 H         1.534227        -1.412013        -1.698972
