19
Iteration:  3880charge 0 multiplicity 1
 C         0.015418         0.219884        -0.476823
 C         1.413104        -0.029040        -0.176261
 O         2.076121         0.499731         1.036477
 C         2.583916         0.822728        -0.243623
 C         3.401744        -0.148888        -0.868023
 O         4.554781        -0.555200        -0.141526
 C         4.345303        -2.041452        -0.014433
 C         2.825011        -2.118233         0.280722
 C         2.181525        -1.296629        -0.743804
 H        -0.386797        -0.323205        -1.389382
 H        -0.561503        -0.091934         0.375506
 H        -0.128689         1.293456        -0.768333
 H         2.657238         1.937627        -0.237184
 H         3.651896         0.217846        -1.868761
 H         4.484786        -2.702178        -0.832355
 H         4.896881        -2.205504         0.901992
 H         2.607508        -3.219372         0.215591
 H         2.525302        -1.671079         1.220180
 H         1.828493        -1.575019        -1.743224
