19
Iteration:  3088charge 0 multiplicity 1
 C        -0.084694         0.227815         0.021068
 C         1.436716         0.044225        -0.098041
 O         2.308247         0.707997         0.833960
 C         2.551197         0.957214        -0.516698
 C         3.488110        -0.206114        -1.069044
 O         4.468291        -0.701293        -0.057041
 C         4.135040        -1.974619         0.548186
 C         2.843623        -2.454474        -0.191637
 C         2.255660        -1.218420        -0.882787
 H        -0.680183        -0.671655        -0.232833
 H        -0.426000         0.651754         1.017651
 H        -0.325723         1.112672        -0.576633
 H         2.589374         1.949326        -1.036688
 H         3.773651         0.041838        -2.091545
 H         4.902629        -2.727966         0.457559
 H         4.070542        -1.845096         1.630440
 H         3.235819        -3.243416        -0.809627
 H         2.090652        -2.786134         0.579310
 H         1.705266        -1.417399        -1.825072
