19
Iteration:  2497charge 0 multiplicity 1
 C        -0.014212         0.096269        -0.234798
 C         1.464422         0.005165        -0.187833
 O         2.192588         0.507066         0.983119
 C         2.680413         0.962806        -0.243015
 C         3.480780        -0.109034        -0.983154
 O         4.573364        -0.746859        -0.285767
 C         4.164243        -1.915065         0.402520
 C         2.596478        -2.251848         0.056266
 C         2.278072        -1.091799        -0.855563
 H        -0.465743         0.647207        -1.109981
 H        -0.539617        -0.881673        -0.229818
 H        -0.395831         0.549041         0.716582
 H         2.781811         2.026605        -0.407017
 H         3.837391         0.201830        -1.993115
 H         4.782734        -2.723135         0.076269
 H         4.437821        -1.745189         1.446322
 H         2.696743        -3.054366        -0.764126
 H         1.773761        -2.381733         0.772867
 H         1.902502        -1.485413        -1.840916
