19
Iteration:  3730
 C        -0.115808         0.180861        -0.075370
 C         1.407282         0.018014        -0.214797
 O         2.184217         0.425124         0.944237
 C         2.563083         0.970029        -0.330769
 C         3.480639        -0.121874        -1.042994
 O         4.631796        -0.800055        -0.346110
 C         4.046826        -1.770701         0.628936
 C         2.860089        -2.339520        -0.089587
 C         2.312752        -1.108741        -0.912786
 H        -0.690908         0.063563        -0.999456
 H        -0.370550        -0.465737         0.738829
 H        -0.319079         1.156216         0.394444
 H         2.769604         2.000342        -0.680337
 H         3.937040         0.153197        -2.023837
 H         4.862339        -2.404655         1.007827
 H         3.670528        -1.305977         1.565459
 H         3.179667        -3.248156        -0.590943
 H         2.162720        -2.772413         0.653118
 H         1.951588        -1.445947        -1.920833
