19
Iteration:  4050
 C        -0.117307         0.096773        -0.211055
 C         1.450022         0.058734        -0.234259
 O         2.082430         0.452401         0.925469
 C         2.608636         0.970615        -0.325776
 C         3.457666        -0.224478        -1.014225
 O         4.618303        -0.656856        -0.262625
 C         4.258457        -1.888163         0.421176
 C         2.756403        -2.228243         0.109269
 C         2.333091        -1.164354        -0.834016
 H        -0.521618        -0.298522        -1.141024
 H        -0.614070        -0.350370         0.708243
 H        -0.351020         1.173133        -0.162209
 H         2.765984         2.055370        -0.341043
 H         3.757365        -0.003245        -2.057883
 H         4.946191        -2.723253         0.326407
 H         4.311153        -1.683083         1.524666
 H         2.537704        -3.264705        -0.299956
 H         2.088706        -1.960771         0.954773
 H         1.773303        -1.451346        -1.781064
