19
Iteration:  4467charge 0 multiplicity 1
 C        -0.106270         0.241996        -0.316135
 C         1.388775        -0.015470        -0.236948
 O         2.157541         0.482969         0.934881
 C         2.565004         0.859514        -0.379653
 C         3.407475        -0.254020        -0.991246
 O         4.496000        -0.588102        -0.127658
 C         4.362388        -2.010317         0.185043
 C         2.850296        -2.182506         0.327613
 C         2.296647        -1.113235        -0.736462
 H        -0.481066        -0.230998        -1.313841
 H        -0.811732        -0.286145         0.462165
 H        -0.257236         1.329164        -0.548580
 H         2.483435         1.920464        -0.531119
 H         3.755133         0.108491        -1.931931
 H         4.678904        -2.648999        -0.720208
 H         4.912810        -2.411643         1.047066
 H         2.681193        -3.261107         0.087210
 H         2.437679        -1.931767         1.261917
 H         1.836973        -1.539730        -1.671671
