19
Iteration:  4020
 C        -0.044492         0.276981        -0.131014
 C         1.380540        -0.059856        -0.390593
 O         2.097123         0.343076         0.838344
 C         2.457914         0.964529        -0.331171
 C         3.437286        -0.145707        -0.994331
 O         4.608954        -0.630697        -0.161641
 C         4.342789        -1.915209         0.422286
 C         2.790381        -2.179774         0.192223
 C         2.301693        -1.254565        -0.860734
 H        -0.687465         0.386156        -1.051743
 H        -0.524206        -0.406187         0.565527
 H         0.113564         1.328114         0.131994
 H         2.546530         2.060202        -0.503210
 H         4.029239         0.148654        -1.884167
 H         4.893510        -2.717570        -0.130205
 H         4.571033        -1.786613         1.449343
 H         2.696153        -3.207474        -0.258361
 H         2.102395        -2.125581         1.002440
 H         1.831606        -1.647033        -1.757691
