19
Iteration:  3505charge 0 multiplicity 1
 C        -0.024412         0.419225        -0.275571
 C         1.347853        -0.015856        -0.284248
 O         2.012239         0.292072         0.952347
 C         2.515316         0.850251        -0.261661
 C         3.397164        -0.202274        -0.977095
 O         4.620528        -0.718623        -0.432054
 C         4.328880        -1.824386         0.401889
 C         2.859440        -2.165659         0.293803
 C         2.290994        -1.243389        -0.786859
 H        -0.551679         0.316679        -1.166690
 H        -0.544749         0.058074         0.621422
 H        -0.013535         1.484321        -0.105926
 H         2.653880         1.871784        -0.528285
 H         3.541930         0.022973        -2.028442
 H         5.038232        -2.634348         0.168689
 H         4.664269        -1.465571         1.414034
 H         2.928407        -3.155613        -0.215377
 H         2.301793        -2.183216         1.233419
 H         2.132111        -1.644249        -1.772200
