19
Iteration:  4253
 C        -0.059258         0.145000        -0.287516
 C         1.423827        -0.043944        -0.194604
 O         2.104722         0.568758         0.947071
 C         2.657329         1.012672        -0.296102
 C         3.409589        -0.138422        -0.942150
 O         4.621248        -0.733415        -0.378536
 C         4.173627        -1.854569         0.440554
 C         2.801179        -2.361598         0.067554
 C         2.281563        -1.149404        -0.748607
 H        -0.649526        -0.348417        -1.098466
 H        -0.499195        -0.417673         0.613797
 H        -0.264945         1.246769        -0.361075
 H         2.649294         2.100790        -0.361727
 H         3.736778         0.055390        -1.996519
 H         4.975110        -2.645592         0.482863
 H         4.141683        -1.410839         1.488058
 H         2.888292        -3.274424        -0.541464
 H         2.184002        -2.539664         1.001614
 H         1.835973        -1.772001        -1.524622
