19
Iteration:  3314charge 0 multiplicity 1
 C        -0.086198         0.131314        -0.250873
 C         1.448399         0.109952        -0.245629
 O         2.019044         0.426367         1.044431
 C         2.689696         0.965261        -0.255441
 C         3.474063        -0.109866        -0.951374
 O         4.715423        -0.803199        -0.502944
 C         4.196985        -1.904027         0.397846
 C         2.697937        -2.235039         0.192404
 C         2.271646        -1.106498        -0.808788
 H        -0.464518        -0.370301        -1.205151
 H        -0.364437        -0.307580         0.662700
 H        -0.572856         1.090936        -0.375521
 H         2.835395         2.036957        -0.381263
 H         3.608292         0.285831        -1.964202
 H         4.760924        -2.828284         0.169527
 H         4.223151        -1.691388         1.474067
 H         2.789299        -3.280894        -0.106116
 H         2.205021        -2.156288         1.156663
 H         1.786675        -1.292831        -1.763811
