19
Iteration:  3350charge 0 multiplicity 1
 C         0.000137         0.253424        -0.181121
 C         1.485412         0.019801        -0.120843
 O         2.308166         0.444545         0.934149
 C         2.561518         0.907385        -0.443453
 C         3.370107        -0.191701        -1.008513
 O         4.473564        -0.605816        -0.141837
 C         4.143785        -1.873223         0.441395
 C         2.821773        -2.367914        -0.011843
 C         2.244734        -1.180901        -0.874998
 H        -0.524549        -0.280471        -0.953454
 H        -0.504313        -0.102183         0.742218
 H        -0.069929         1.345773        -0.219936
 H         2.468348         1.992951        -0.592898
 H         3.746693         0.129502        -1.969595
 H         4.990620        -2.498115         0.051396
 H         4.220590        -1.828621         1.590493
 H         2.695533        -3.253556        -0.684906
 H         2.098549        -2.604472         0.849498
 H         1.710453        -1.449439        -1.820409
