19
Iteration:  2652
 C        -0.101419         0.152592        -0.287889
 C         1.476382         0.037077        -0.200996
 O         2.080801         0.460917         1.189796
 C         2.636214         1.007564        -0.085687
 C         3.534483        -0.089860        -0.909737
 O         4.641851        -0.798563        -0.451357
 C         4.169265        -2.038515         0.300030
 C         2.692278        -2.215746        -0.009929
 C         2.337826        -1.055786        -0.872945
 H        -0.507367        -0.630336        -1.021544
 H        -0.661232        -0.016225         0.620067
 H        -0.180347         1.182487        -0.715803
 H         2.423814         2.039277        -0.400758
 H         3.677802         0.478945        -1.881794
 H         4.808836        -2.861852         0.019670
 H         4.323349        -1.866493         1.404954
 H         2.580754        -3.086141        -0.707477
 H         1.988341        -2.465593         0.849114
 H         1.914930        -1.269149        -1.894428
