19
Iteration:  3544
 C        -0.017357         0.393945        -0.525180
 C         1.363792         0.007136        -0.101479
 O         1.979106         0.494506         1.133072
 C         2.599741         0.813168        -0.280099
 C         3.320142        -0.298174        -0.932544
 O         4.577274        -0.634791        -0.411238
 C         4.420674        -1.912946         0.199530
 C         2.930252        -2.242912         0.265473
 C         2.246633        -1.216609        -0.640943
 H         0.036471         0.149938        -1.668199
 H        -0.838160        -0.225978        -0.084826
 H        -0.253588         1.504077        -0.449518
 H         2.590196         1.894691        -0.356218
 H         3.394964         0.060793        -1.999162
 H         4.893183        -2.740671        -0.385736
 H         4.896897        -1.956208         1.201380
 H         2.817859        -3.217310        -0.186871
 H         2.451900        -2.375591         1.282475
 H         1.602232        -1.698295        -1.436346
