19
Iteration:  2676charge 0 multiplicity 1
 C        -0.053388         0.154150        -0.326293
 C         1.427177         0.143246        -0.260023
 O         1.986053         0.278294         1.070817
 C         2.705263         0.987321        -0.037140
 C         3.547087        -0.064217        -0.858122
 O         4.649843        -0.870513        -0.507960
 C         4.264639        -1.974286         0.271678
 C         2.697171        -2.107392         0.087082
 C         2.210678        -1.034676        -0.852135
 H        -0.412266        -0.497447        -1.156772
 H        -0.414660        -0.421134         0.609708
 H        -0.401249         1.204105        -0.387925
 H         2.838877         2.012198         0.210167
 H         3.569380         0.285207        -1.875770
 H         4.906000        -2.787468         0.018367
 H         4.427555        -1.836031         1.361803
 H         2.322597        -3.113857        -0.084497
 H         2.314836        -1.873521         1.146713
 H         1.956247        -1.082299        -1.881397
