19
Iteration:  1764charge 0 multiplicity 1
 C        -0.094772         0.242733        -0.396700
 C         1.417899         0.132239        -0.278746
 O         1.960214         0.315486         1.067586
 C         2.625389         0.941730        -0.084094
 C         3.478168        -0.075784        -0.822614
 O         4.576034        -0.681986        -0.118245
 C         4.340865        -2.048362        -0.115118
 C         2.824464        -2.251723         0.143037
 C         2.259349        -1.118178        -0.715650
 H        -0.560372        -0.433081         0.276473
 H        -0.332449         1.253377        -0.167887
 H        -0.304725        -0.093673        -1.442642
 H         2.724582         2.062930        -0.110660
 H         3.879156         0.411086        -1.748698
 H         4.599796        -2.387308        -1.168207
 H         5.004571        -2.595607         0.556695
 H         2.400737        -3.236990        -0.143019
 H         2.457000        -1.907510         1.109433
 H         2.192370        -1.412126        -1.821438
