19
Iteration:   803
 C        -0.078048         0.322521        -0.199777
 C         1.400338        -0.028438        -0.134052
 O         2.124784         0.306040         1.030637
 C         2.593618         0.896949        -0.179525
 C         3.469775        -0.100635        -0.942709
 O         4.610103        -0.682293        -0.334428
 C         4.157021        -1.877671         0.453833
 C         2.818211        -2.303442        -0.152709
 C         2.278357        -1.099456        -0.915756
 H        -0.600820        -0.342166         0.572497
 H        -0.300366         1.401486        -0.059304
 H        -0.394691        -0.068149        -1.217478
 H         2.724156         1.985400        -0.149350
 H         3.808406         0.309948        -1.914478
 H         4.912036        -2.616205         0.427464
 H         4.065916        -1.483402         1.530646
 H         3.118853        -3.100048        -0.859421
 H         2.151616        -2.667476         0.594141
 H         1.949753        -1.450628        -1.940172
