19
Iteration:  1945charge 0 multiplicity 1
 C        -0.067039         0.393407        -0.121387
 C         1.353245        -0.128062        -0.179317
 O         2.102586         0.326424         1.061317
 C         2.483575         0.873614        -0.157017
 C         3.567891        -0.090504        -0.920871
 O         4.614697        -0.706100        -0.294491
 C         4.146742        -1.817053         0.480477
 C         2.925540        -2.316119        -0.303794
 C         2.293122        -1.112939        -0.997678
 H        -0.856122        -0.183120         0.454574
 H        -0.054822         1.342195         0.412216
 H        -0.567993         0.395719        -1.095852
 H         2.352662         1.986280        -0.025084
 H         4.007103         0.320102        -1.823278
 H         4.853008        -2.609807         0.444519
 H         3.957280        -1.666511         1.542965
 H         3.176249        -3.103520        -0.950108
 H         2.197306        -2.863194         0.312238
 H         1.889343        -1.505887        -1.872701
