19
Iteration:  1514charge 0 multiplicity 1
 C        -0.049878         0.340505        -0.200597
 C         1.407841        -0.077272        -0.245729
 O         2.074977         0.297937         1.001774
 C         2.485507         0.948216        -0.304732
 C         3.476658        -0.113355        -0.840398
 O         4.565907        -0.609717         0.036682
 C         4.292496        -2.019853         0.066733
 C         2.787334        -2.273214         0.013780
 C         2.337136        -1.097555        -0.902611
 H        -0.789806        -0.401407         0.231560
 H         0.031974         1.272444         0.343095
 H        -0.298893         0.783079        -1.239441
 H         2.485810         2.020570        -0.414127
 H         3.926837         0.093632        -1.834311
 H         4.590872        -2.399774        -0.994464
 H         4.887173        -2.369399         0.858605
 H         2.531844        -3.292430        -0.368141
 H         2.312538        -2.121005         0.987543
 H         2.083002        -1.420673        -1.932873
