19
Iteration:  2801
 C        -0.001672         0.115081        -0.070456
 C         1.467752        -0.002521        -0.154046
 O         2.235029         0.536768         0.984368
 C         2.602037         0.999536        -0.288012
 C         3.526689        -0.107988        -1.014764
 O         4.585964        -0.818790        -0.348301
 C         3.994279        -1.845861         0.551589
 C         2.740439        -2.375808        -0.136582
 C         2.257812        -1.078154        -0.890463
 H        -0.394673         1.107593        -0.374344
 H        -0.303474        -0.670818        -0.781545
 H        -0.403550        -0.167613         0.935039
 H         2.659961         2.071123        -0.587443
 H         3.759943         0.141264        -2.051550
 H         4.766499        -2.624929         0.769449
 H         3.799421        -1.221829         1.376378
 H         2.879635        -3.235444        -0.793025
 H         1.990988        -2.431514         0.577756
 H         1.932218        -1.237194        -1.941350
