19
Iteration:  1519charge 0 multiplicity 1
 C        -0.030679         0.303101        -0.188087
 C         1.405102        -0.089530        -0.267452
 O         2.043600         0.321244         0.968946
 C         2.499267         0.954172        -0.279294
 C         3.498135        -0.094332        -0.842264
 O         4.566449        -0.616097         0.026508
 C         4.262155        -2.030487         0.043201
 C         2.808526        -2.254199         0.038914
 C         2.336192        -1.053566        -0.899060
 H        -0.639434        -0.420671         0.291082
 H         0.065987         1.229135         0.418414
 H        -0.380963         0.565398        -1.147158
 H         2.589565         2.055529        -0.396142
 H         3.973835        -0.002969        -1.822422
 H         4.604642        -2.519258        -0.842565
 H         4.840400        -2.546648         0.889078
 H         2.543962        -3.242120        -0.332089
 H         2.144019        -2.235025         0.932203
 H         2.013025        -1.316960        -1.902879
