19
Iteration:  3577
 C        -0.064494         0.149314        -0.543253
 C         1.424753         0.024940        -0.200680
 O         2.093539         0.560370         1.111071
 C         2.554561         0.982061        -0.201286
 C         3.401018        -0.158456        -0.874473
 O         4.578525        -0.690967        -0.357013
 C         4.261573        -2.081908         0.082971
 C         2.842703        -2.221836         0.359587
 C         2.317744        -1.121579        -0.669840
 H        -0.072825         0.203032        -1.704043
 H        -0.573155        -0.823347        -0.309894
 H        -0.712868         1.008577        -0.205201
 H         2.471069         2.044227        -0.407425
 H         3.506590         0.253893        -1.930628
 H         4.686408        -2.668900        -0.755590
 H         4.898249        -2.273148         0.957093
 H         2.364905        -3.152442         0.153491
 H         2.755960        -1.851734         1.421422
 H         1.932997        -1.843192        -1.435619
