19
Iteration:   759
 C        -0.026561        -0.140834        -0.062622
 C         1.485551         0.083747        -0.207665
 O         2.158643         0.333896         0.969975
 C         2.686605         1.044991        -0.256899
 C         3.578035        -0.032117        -0.975274
 O         4.620304        -0.845873        -0.303648
 C         3.971288        -1.836281         0.535295
 C         2.613832        -2.094271        -0.128692
 C         2.356938        -0.962955        -1.014474
 H        -0.114211        -1.142768         0.508719
 H        -0.468332         0.604817         0.626861
 H        -0.650958        -0.187247        -1.023081
 H         2.804816         2.122455        -0.224021
 H         3.875994         0.350359        -1.968183
 H         4.560243        -2.692652         0.412417
 H         4.001473        -1.557792         1.691271
 H         2.683413        -3.061141        -0.680531
 H         1.837794        -2.173270         0.629867
 H         1.890480        -1.147852        -2.042155
