19
Iteration:  4873charge 0 multiplicity 1
 C        -0.027612         0.256874        -0.524197
 C         1.401595         0.023102        -0.207036
 O         2.000911         0.590244         0.991405
 C         2.593979         0.919656        -0.285641
 C         3.381756        -0.242513        -0.909972
 O         4.566017        -0.624929        -0.256818
 C         4.339874        -2.013138         0.136064
 C         2.919572        -2.252645         0.369989
 C         2.224284        -1.272722        -0.641357
 H        -0.233918        -0.284334        -1.449852
 H        -0.518838        -0.158928         0.262418
 H        -0.313583         1.306504        -0.493186
 H         2.643860         2.040604        -0.447602
 H         3.399141        -0.080226        -2.020645
 H         4.672229        -2.718315        -0.679627
 H         5.106943        -2.126949         0.934244
 H         2.696347        -3.273460         0.374103
 H         2.565752        -1.716529         1.285934
 H         1.769189        -1.779695        -1.492278
