19
Iteration:  1416
 C        -0.047694         0.115860        -0.436475
 C         1.409145         0.181498        -0.275082
 O         1.831673         0.273389         1.066822
 C         2.652687         0.962048         0.127476
 C         3.544691        -0.025988        -0.805760
 O         4.719728        -0.722272        -0.388470
 C         4.275127        -2.119901        -0.003187
 C         2.757191        -2.151975         0.175348
 C         2.284092        -1.019863        -0.800961
 H        -0.467103        -0.544330         0.328196
 H        -0.390234         1.072092        -0.111466
 H        -0.370340        -0.133580        -1.476891
 H         2.682103         2.029977         0.312342
 H         3.820336         0.484711        -1.753681
 H         4.614616        -2.689317        -0.842012
 H         4.656346        -2.414350         0.928646
 H         2.380067        -3.227575        -0.045594
 H         2.566096        -1.697363         1.132920
 H         2.043709        -1.329790        -1.824766
