19
Iteration:  2049
 C        -0.167764         0.090029        -0.310607
 C         1.400781         0.134631        -0.381837
 O         1.963344         0.296633         1.000865
 C         2.655683         0.938048        -0.027114
 C         3.527109        -0.067902        -0.778536
 O         4.670404        -0.666781        -0.068129
 C         4.278114        -2.089625        -0.128956
 C         2.723359        -2.122173         0.117370
 C         2.319200        -1.031528        -0.843788
 H        -0.385803        -0.850219         0.150140
 H        -0.514757         0.855177         0.459908
 H        -0.699804         0.365354        -1.220072
 H         2.984550         1.976377         0.061775
 H         3.850514         0.290396        -1.805582
 H         4.497954        -2.492057        -1.045002
 H         4.681662        -2.564976         0.753374
 H         2.364910        -3.227730         0.151702
 H         2.811461        -1.492948         0.996019
 H         2.291227        -1.483855        -1.902688
