19
Iteration:  3244charge 0 multiplicity 1
 C         0.047470         0.466696        -0.499526
 C         1.409093        -0.025823        -0.167934
 O         2.103972         0.346627         1.093879
 C         2.623875         0.859950        -0.204924
 C         3.320484        -0.237239        -1.012953
 O         4.535400        -0.690760        -0.554544
 C         4.341162        -1.733288         0.485737
 C         2.916276        -2.304850         0.293562
 C         2.090592        -1.305069        -0.760528
 H         0.154203         1.162728        -1.331691
 H        -0.679331        -0.437503        -0.497517
 H        -0.328871         1.185281         0.289238
 H         2.708962         1.960540        -0.228086
 H         3.346544         0.000755        -2.121642
 H         4.911639        -2.568413         0.104983
 H         4.678774        -1.318383         1.441271
 H         2.819741        -3.270724        -0.213616
 H         2.308032        -2.305653         1.212186
 H         1.724368        -1.883835        -1.612885
