19
Iteration:  3550
 C         0.032931         0.341025        -0.557410
 C         1.374114        -0.013813        -0.076143
 O         1.978576         0.500536         1.118852
 C         2.632117         0.870691        -0.272844
 C         3.345334        -0.267371        -0.898774
 O         4.547185        -0.642865        -0.425921
 C         4.437958        -1.918212         0.232651
 C         2.876434        -2.243425         0.250389
 C         2.163712        -1.212822        -0.614913
 H         0.059976         0.174263        -1.599945
 H        -0.685097        -0.332828        -0.116432
 H        -0.344815         1.331917        -0.448424
 H         2.748437         1.965182        -0.450427
 H         3.372176        -0.000023        -1.965827
 H         4.837417        -2.554735        -0.590644
 H         5.169607        -2.041239         1.052903
 H         2.640030        -3.208188        -0.258962
 H         2.550574        -2.294916         1.261273
 H         1.744903        -1.760053        -1.439545
