19
Iteration:   198charge 0 multiplicity 1
 C         0.056728         0.222979        -0.293512
 C         1.504955        -0.039152         0.030044
 O         2.317585         0.419747         1.123766
 C         2.553014         0.876837        -0.253748
 C         3.392508        -0.119576        -0.995650
 O         4.407180        -0.581880        -0.068934
 C         4.044954        -1.912871         0.444747
 C         2.916183        -2.384012        -0.503403
 C         2.204714        -1.073813        -0.823577
 H        -0.439653         1.050081         0.213193
 H        -0.012874         0.387243        -1.319569
 H        -0.474713        -0.638328        -0.096560
 H         2.506625         1.979809        -0.321815
 H         3.800025         0.128057        -1.992562
 H         4.893252        -2.602558         0.413384
 H         3.681714        -1.737215         1.474643
 H         3.336472        -2.760317        -1.373657
 H         2.329735        -3.127949        -0.131582
 H         1.572394        -1.255740        -1.707875
