19
Iteration:   451charge 0 multiplicity 1
 C        -0.026829        -0.020868        -0.016942
 C         1.493552         0.091611        -0.336768
 O         2.020860         0.360062         0.916652
 C         2.699145         1.039726        -0.098550
 C         3.571985         0.000663        -0.875288
 O         4.603765        -0.863829        -0.359409
 C         4.042756        -1.880525         0.567398
 C         2.698850        -2.236550        -0.206323
 C         2.319456        -0.982381        -1.021806
 H        -0.095847        -0.687208         0.807887
 H        -0.247630         1.011904         0.277766
 H        -0.609821        -0.294243        -0.815129
 H         2.772471         2.133752        -0.009843
 H         3.896419         0.304258        -1.886751
 H         4.641294        -2.690085         0.507866
 H         3.992974        -1.491325         1.628775
 H         2.900822        -3.076752        -0.826913
 H         1.991884        -2.525632         0.633305
 H         2.040202        -1.097081        -2.108633
