19
Iteration:  2682charge 0 multiplicity 1
 C        -0.095926         0.156118        -0.326212
 C         1.506276         0.162758        -0.310916
 O         1.982678         0.221800         1.079175
 C         2.742566         0.968795        -0.011543
 C         3.470153        -0.140967        -0.871439
 O         4.637690        -0.815239        -0.507741
 C         4.289682        -1.992030         0.271449
 C         2.702532        -2.060463         0.127865
 C         2.208306        -0.998682        -0.825997
 H        -0.489069        -0.264500        -1.273842
 H        -0.404642        -0.410684         0.488162
 H        -0.370156         1.215891        -0.288726
 H         2.766964         2.098850         0.092185
 H         3.630551         0.294953        -1.911572
 H         4.905021        -2.928049         0.043620
 H         4.428660        -1.777765         1.356431
 H         2.391469        -3.075802        -0.207516
 H         2.310054        -1.785793         1.072575
 H         1.887480        -1.355314        -1.882634
