19
Iteration:  3338
 C        -0.067971         0.199621        -0.202320
 C         1.411257        -0.039233        -0.212265
 O         2.277591         0.466437         0.976975
 C         2.596122         0.936910        -0.311821
 C         3.457693        -0.165666        -1.020556
 O         4.487358        -0.690958        -0.252813
 C         4.240338        -1.936121         0.430029
 C         2.764259        -2.227291         0.001004
 C         2.227864        -1.109315        -0.801911
 H        -0.471473        -0.315785        -1.088021
 H        -0.533786        -0.085693         0.720079
 H        -0.351619         1.228257        -0.424297
 H         2.697337         2.009117        -0.566370
 H         3.712050        -0.064838        -2.063508
 H         4.960864        -2.777654         0.246377
 H         4.202864        -1.715054         1.553354
 H         2.883800        -3.219672        -0.470998
 H         2.201142        -2.316628         0.978547
 H         1.772184        -1.383392        -1.782564
