19
Iteration:  1094
 C        -0.038036         0.138987        -0.183278
 C         1.454865         0.064969        -0.370694
 O         2.113811         0.216589         1.018206
 C         2.681846         0.951975         0.009172
 C         3.498214        -0.049374        -0.927152
 O         4.640985        -0.716271        -0.480914
 C         4.056572        -1.839748         0.496882
 C         2.682648        -2.194714        -0.013873
 C         2.337490        -1.084400        -0.985506
 H        -0.343211        -0.846234         0.237797
 H        -0.237588         0.929064         0.468038
 H        -0.559411         0.259282        -1.131153
 H         2.900258         2.019569         0.275413
 H         3.680163         0.508874        -1.862119
 H         4.658501        -2.702322         0.299996
 H         4.101016        -1.379818         1.423038
 H         2.701940        -3.222472        -0.358010
 H         1.879553        -2.220189         0.840153
 H         1.928570        -1.537240        -1.832976
