19
Iteration:  4678
 C         0.082283         0.113833        -0.138508
 C         1.484024        -0.045086        -0.186055
 O         2.255519         0.423454         0.905100
 C         2.657844         0.873333        -0.349907
 C         3.473016        -0.172140        -1.023969
 O         4.501138        -0.720407        -0.337159
 C         4.016739        -1.561507         0.672917
 C         2.746201        -2.287206        -0.059218
 C         2.207708        -1.186979        -0.878511
 H        -0.453668        -0.213812        -1.108535
 H        -0.166734        -0.615428         0.694570
 H        -0.207191         1.241751         0.034205
 H         2.623476         1.927803        -0.494446
 H         3.779254        -0.104638        -2.032604
 H         4.781130        -2.307759         0.935703
 H         3.718913        -0.930425         1.563869
 H         3.046695        -3.043077        -0.739238
 H         1.949590        -2.732835         0.603957
 H         1.677725        -1.610966        -1.717231
