19
Iteration:  2664
 C        -0.056116         0.164722        -0.309739
 C         1.434186         0.060410        -0.134319
 O         2.020870         0.408141         1.075535
 C         2.614377         0.963675        -0.049349
 C         3.535655        -0.031965        -0.868074
 O         4.680080        -0.858215        -0.513977
 C         4.176252        -1.984592         0.283080
 C         2.671431        -2.233808         0.064359
 C         2.338194        -0.997576        -0.909783
 H        -0.321710        -0.587331        -1.118944
 H        -0.507233        -0.125879         0.678651
 H        -0.626946         1.093121        -0.570812
 H         2.862288         2.007087         0.019110
 H         3.981482         0.497227        -1.729032
 H         4.680225        -2.832589        -0.107325
 H         4.480002        -1.760345         1.334300
 H         2.479722        -3.248604        -0.340646
 H         2.078244        -1.995028         1.026656
 H         1.977296        -1.468590        -1.820198
