19
Iteration:  1212
 C        -0.042000         0.226496        -0.427148
 C         1.445665         0.081359        -0.213814
 O         1.949632         0.224770         1.103773
 C         2.577349         1.007142         0.093196
 C         3.475295        -0.074444        -0.890138
 O         4.651415        -0.691924        -0.450576
 C         4.322821        -2.035536         0.265745
 C         2.789633        -2.244859         0.066472
 C         2.286855        -1.045791        -0.919589
 H        -0.620781        -0.408289         0.343713
 H        -0.283570         1.258267        -0.261239
 H        -0.451327        -0.021523        -1.437474
 H         2.558546         2.111474         0.241040
 H         3.706147         0.519700        -1.776123
 H         4.948797        -2.768826        -0.211985
 H         4.544059        -1.805203         1.360187
 H         2.510285        -3.153071        -0.302386
 H         2.236063        -2.205199         0.999982
 H         1.833144        -1.361371        -1.829675
