19
Iteration:  3914
 C        -0.131476         0.163603        -0.373244
 C         1.360884         0.065219        -0.280603
 O         1.932799         0.491858         0.909102
 C         2.567009         1.024692        -0.331605
 C         3.503730        -0.033110        -0.839374
 O         4.649610        -0.724730        -0.160400
 C         4.316222        -2.171733         0.004523
 C         2.900715        -2.163181         0.404317
 C         2.318641        -1.168359        -0.709602
 H        -0.439147        -0.307427        -1.344028
 H        -0.620919        -0.381924         0.420220
 H        -0.514981         1.177315        -0.083263
 H         2.519399         2.170186        -0.079913
 H         3.872404         0.084185        -1.843425
 H         4.573635        -2.754833        -0.873585
 H         5.077294        -2.629046         0.680912
 H         2.346487        -3.082196         0.136596
 H         2.752139        -1.910223         1.485443
 H         1.947939        -1.568646        -1.693567
