19
Iteration:   804charge 0 multiplicity 1
 C        -0.071067         0.326309        -0.206101
 C         1.392434        -0.028309        -0.115982
 O         2.129228         0.302111         1.027518
 C         2.585926         0.892147        -0.182581
 C         3.471795        -0.103398        -0.943902
 O         4.606576        -0.680860        -0.332022
 C         4.161251        -1.877917         0.454418
 C         2.822981        -2.299849        -0.150846
 C         2.272365        -1.099452        -0.918409
 H        -0.622767        -0.305183         0.546971
 H        -0.313649         1.406165        -0.069429
 H        -0.348067        -0.052004        -1.221663
 H         2.729767         1.993005        -0.153001
 H         3.790588         0.324775        -1.924125
 H         4.941096        -2.619001         0.440616
 H         4.063786        -1.486259         1.523324
 H         3.111994        -3.119414        -0.867969
 H         2.180272        -2.693992         0.587977
 H         1.930032        -1.436189        -1.953755
