19
Iteration:   167charge 0 multiplicity 1
 C         0.007453         0.224160        -0.229976
 C         1.463060        -0.015762        -0.125903
 O         2.251990         0.273382         1.109605
 C         2.561615         0.950609        -0.145766
 C         3.462978        -0.016188        -0.996021
 O         4.515359        -0.621233        -0.218570
 C         4.041482        -1.864830         0.484332
 C         2.846263        -2.414965        -0.332379
 C         2.285018        -1.083210        -0.950062
 H        -0.421688         1.024979         0.437053
 H        -0.230854         0.524194        -1.276979
 H        -0.542451        -0.690827        -0.012127
 H         2.478554         2.055448        -0.066713
 H         3.855495         0.360918        -1.941748
 H         4.835379        -2.564344         0.600694
 H         3.697517        -1.553838         1.528383
 H         3.142766        -3.087742        -1.098391
 H         2.085102        -2.913224         0.304194
 H         1.678993        -1.280006        -1.900324
