19
Iteration:  4608
 C        -0.043381         0.305214        -0.375682
 C         1.450716        -0.044955        -0.157057
 O         2.113004         0.484570         0.967631
 C         2.564583         0.930841        -0.284358
 C         3.391186        -0.223205        -1.063893
 O         4.548907        -0.629094        -0.337194
 C         4.331963        -1.914061         0.398269
 C         2.789543        -2.344293         0.244729
 C         2.271115        -1.196409        -0.723927
 H        -0.459315         0.028180        -1.334434
 H        -0.690722        -0.287549         0.288361
 H        -0.348670         1.338838        -0.355449
 H         2.571829         2.038479        -0.365390
 H         3.592080         0.241219        -2.098407
 H         5.092165        -2.613172        -0.041817
 H         4.605285        -1.669313         1.406106
 H         2.792329        -3.385950        -0.199457
 H         2.235766        -2.334468         1.136258
 H         1.814834        -1.530371        -1.703395
