19
Iteration:  3461charge 0 multiplicity 1
 C        -0.043789         0.045203        -0.205942
 C         1.527816         0.021837        -0.249102
 O         2.350434         0.392144         0.969789
 C         2.634142         0.963369        -0.311016
 C         3.440330        -0.182937        -1.055694
 O         4.534297        -0.848613        -0.469522
 C         3.995346        -1.634163         0.615200
 C         2.733615        -2.169421         0.103214
 C         2.240991        -1.098850        -0.807327
 H        -0.383709        -0.024716        -1.204598
 H        -0.351793        -0.835104         0.399335
 H        -0.549706         0.880127         0.260183
 H         2.603387         2.023681        -0.242138
 H         3.696205         0.046778        -2.076085
 H         4.718848        -2.463257         0.785802
 H         3.888781        -1.078137         1.606164
 H         2.910910        -3.003597        -0.606393
 H         2.038763        -2.309418         0.961171
 H         1.805220        -1.605494        -1.695566
