19
Iteration:  1654
 C         0.028105         0.485816        -0.290417
 C         1.380835        -0.143261        -0.263832
 O         2.060989         0.282477         1.042398
 C         2.508202         0.840980        -0.170372
 C         3.442086        -0.142810        -0.867373
 O         4.452938        -0.562561        -0.103011
 C         4.352318        -1.979311         0.113218
 C         2.888152        -2.297011         0.029330
 C         2.304963        -1.146288        -0.896563
 H        -0.690823        -0.110930         0.298246
 H         0.122504         1.374245         0.298588
 H        -0.513133         0.942676        -1.222113
 H         2.362175         1.903010        -0.267524
 H         3.784043         0.121114        -1.893666
 H         4.906068        -2.519922        -0.637928
 H         4.726893        -2.097580         1.146089
 H         2.545279        -3.312495        -0.319565
 H         2.416901        -2.130079         1.017234
 H         2.119936        -1.443321        -2.014245
