19
Iteration:  1728charge 0 multiplicity 1
 C         0.004552         0.085969        -0.422681
 C         1.436325         0.072487        -0.183640
 O         1.849790         0.491726         1.150867
 C         2.510008         0.994876        -0.057715
 C         3.579022        -0.087287        -0.817822
 O         4.676209        -0.813526        -0.235028
 C         4.273680        -2.166299        -0.082033
 C         2.770265        -2.113080         0.064679
 C         2.356222        -0.969181        -0.798102
 H        -0.282122        -0.913107        -0.178213
 H        -0.588547         0.728899         0.157386
 H        -0.294738         0.354711        -1.403073
 H         2.366614         2.047295        -0.122996
 H         3.917239         0.540042        -1.653711
 H         4.417582        -2.726246        -1.049935
 H         4.875821        -2.755545         0.768110
 H         2.444665        -3.171492         0.220844
 H         2.598658        -1.717545         1.139117
 H         1.830241        -1.373842        -1.678872
