19
Iteration:  1281
 C         0.055439         0.048271        -0.097138
 C         1.531614         0.008006        -0.202165
 O         2.154818         0.518238         0.967597
 C         2.615801         1.022145        -0.338850
 C         3.503856        -0.066375        -0.789686
 O         4.404813        -0.550627         0.163148
 C         4.186095        -2.057668         0.097683
 C         2.712281        -2.384413        -0.251985
 C         2.263823        -1.085638        -0.923560
 H        -0.394843        -0.974187         0.131649
 H        -0.441438         0.756688         0.668929
 H        -0.332673         0.364690        -1.082596
 H         2.731718         2.057200        -0.582487
 H         3.973944         0.014568        -1.804992
 H         4.748678        -2.261584        -0.854602
 H         4.582457        -2.520347         0.977410
 H         2.560575        -3.334573        -0.835673
 H         2.080618        -2.645881         0.662889
 H         1.971340        -1.067404        -2.009975
