19
Iteration:  4054charge 0 multiplicity 1
 C        -0.075252         0.062246        -0.227164
 C         1.456641         0.059391        -0.229604
 O         2.099468         0.483052         0.946205
 C         2.627837         0.959774        -0.322723
 C         3.439315        -0.203848        -1.026487
 O         4.595343        -0.687423        -0.253999
 C         4.276637        -1.873484         0.436538
 C         2.754454        -2.210526         0.099048
 C         2.285781        -1.161032        -0.857101
 H        -0.434976        -0.363865        -1.205378
 H        -0.600956        -0.287682         0.633487
 H        -0.359967         1.131058        -0.200654
 H         2.680320         2.057170        -0.224065
 H         3.609251         0.080324        -2.087840
 H         4.952130        -2.740965         0.369384
 H         4.321920        -1.697623         1.482755
 H         2.548049        -3.184109        -0.323030
 H         2.116606        -2.090245         0.962506
 H         1.735523        -1.550872        -1.682284
