19
Iteration:   805
 C        -0.063830         0.329143        -0.212805
 C         1.384657        -0.027404        -0.098609
 O         2.134038         0.297798         1.025241
 C         2.578344         0.888083        -0.185720
 C         3.473759        -0.106111        -0.945408
 O         4.602908        -0.679944        -0.329366
 C         4.165270        -1.875930         0.456078
 C         2.829209        -2.296705        -0.150093
 C         2.265837        -1.100086        -0.921826
 H        -0.644093        -0.261143         0.515390
 H        -0.324570         1.404830        -0.080672
 H        -0.303358        -0.030095        -1.221090
 H         2.731497         1.996163        -0.157676
 H         3.769448         0.336874        -1.931538
 H         4.976688        -2.626293         0.451344
 H         4.060884        -1.495342         1.506386
 H         3.098216        -3.135151        -0.873599
 H         2.200037        -2.727046         0.591137
 H         1.909247        -1.414351        -1.956562
