19
Iteration:   727charge 0 multiplicity 1
 C         0.056998        -0.014156        -0.205435
 C         1.553699         0.040546        -0.107581
 O         2.447320         0.386222         1.038438
 C         2.643936         1.013886        -0.251206
 C         3.393520        -0.039017        -0.997594
 O         4.460570        -0.649897        -0.196870
 C         3.940325        -1.819508         0.526053
 C         2.648490        -2.320815        -0.217564
 C         2.237592        -1.112719        -0.983565
 H        -0.165151        -1.079426        -0.078471
 H        -0.476006         0.628167         0.471915
 H        -0.266211         0.205051        -1.252796
 H         2.786188         2.071656        -0.426435
 H         3.598762         0.333679        -2.023009
 H         4.713857        -2.522641         0.473573
 H         3.773857        -1.538500         1.651212
 H         2.958420        -3.243678        -0.742287
 H         1.999907        -2.566385         0.579591
 H         1.727823        -1.372013        -1.995666
