19
Iteration:  1040
 C         0.029322         0.075464        -0.074501
 C         1.485585         0.050151        -0.255728
 O         2.365303         0.594801         1.021405
 C         2.574655         1.008126        -0.291593
 C         3.454249        -0.132803        -0.892866
 O         4.416053        -0.612445         0.049699
 C         4.154236        -1.947505         0.300587
 C         2.662817        -2.474510        -0.376882
 C         2.238090        -1.083939        -0.916036
 H        -0.163665        -0.553882         0.785988
 H        -0.478529         0.949119         0.132097
 H        -0.391314        -0.421145        -0.943113
 H         2.468590         2.055204        -0.664482
 H         3.936927         0.075673        -1.862546
 H         4.981000        -2.614053        -0.014091
 H         4.166808        -2.088182         1.349617
 H         2.896455        -3.176893        -1.178988
 H         2.021303        -2.994991         0.467255
 H         1.740117        -1.202734        -1.838770
