19
Iteration:  2852
 C        -0.001463         0.039665         0.088172
 C         1.533633         0.069040        -0.277358
 O         2.394174         0.357410         0.880652
 C         2.624726         1.017583        -0.467271
 C         3.558777        -0.106565        -1.071064
 O         4.518235        -0.730352        -0.166269
 C         3.912234        -1.747005         0.611281
 C         2.621269        -2.299743        -0.079483
 C         2.230330        -1.126184        -0.997215
 H        -0.111164         0.555374         0.998345
 H        -0.697724         0.374211        -0.767778
 H        -0.260461        -1.008778         0.244599
 H         2.468180         2.144140        -0.418461
 H         4.049327         0.247952        -1.977062
 H         4.729526        -2.486531         0.718905
 H         3.744740        -1.251793         1.574467
 H         2.986887        -3.108946        -0.803764
 H         1.733121        -2.619543         0.564430
 H         1.878337        -1.370353        -1.980964
