19
Iteration:   146charge 0 multiplicity 1
 C        -0.087119         0.182811        -0.101742
 C         1.423637        -0.044578        -0.252163
 O         2.022309         0.202382         1.022810
 C         2.606261         0.958489        -0.150386
 C         3.545983        -0.051343        -0.851457
 O         4.677534        -0.800622        -0.321399
 C         4.138180        -1.816234         0.468609
 C         2.774461        -2.180173        -0.221148
 C         2.319858        -0.975719        -1.018019
 H        -0.210209         1.117403         0.551989
 H        -0.575122         0.473561        -1.084882
 H        -0.684020        -0.637915         0.375561
 H         2.583456         2.055130        -0.009522
 H         3.862121         0.333992        -1.813288
 H         4.771188        -2.673670         0.480818
 H         4.027239        -1.446532         1.547685
 H         3.065013        -3.012269        -0.878913
 H         2.014672        -2.647899         0.505183
 H         2.159786        -1.208377        -2.110000
