19
Iteration:  2565
 C        -0.008920         0.219078         0.089929
 C         1.502434         0.007038        -0.232131
 O         2.251843         0.388993         0.943175
 C         2.581374         0.936624        -0.290047
 C         3.522797        -0.188795        -1.066008
 O         4.533987        -0.711284        -0.163584
 C         3.908176        -1.781327         0.569072
 C         2.794894        -2.381042        -0.317596
 C         2.365488        -1.101389        -1.035700
 H        -0.841661        -0.453222        -0.376065
 H        -0.164106        -0.019923         1.144915
 H        -0.388481         1.303896         0.043286
 H         2.704332         2.049102        -0.275208
 H         3.962817         0.176763        -1.983592
 H         4.719361        -2.284725         1.031884
 H         3.339250        -1.360045         1.425506
 H         3.274870        -3.007047        -1.104105
 H         1.948480        -2.895676         0.214783
 H         1.749980        -1.209598        -1.936765
