19
Iteration:  4929
 C        -0.041334         0.107660        -0.266858
 C         1.455296        -0.009486        -0.253068
 O         2.026161         0.756617         0.834280
 C         2.586913         0.936469        -0.402170
 C         3.505187        -0.256583        -0.912503
 O         4.456315        -0.654132        -0.020872
 C         4.385531        -2.056570         0.085196
 C         2.779138        -2.286173         0.285737
 C         2.269098        -1.153513        -0.703776
 H        -0.426757         0.416213        -1.288729
 H        -0.416283        -0.803099        -0.025900
 H        -0.432759         0.812677         0.425207
 H         2.719552         2.012696        -0.777953
 H         3.873136        -0.183776        -1.993036
 H         4.797574        -2.585987        -0.831249
 H         5.105562        -2.221553         0.952216
 H         2.331938        -3.266591         0.168632
 H         2.468226        -1.914509         1.261172
 H         1.839815        -1.604523        -1.613336
