19
Iteration:  3733charge 0 multiplicity 1
 C        -0.093196         0.167439        -0.069577
 C         1.405122         0.046354        -0.242924
 O         2.194349         0.407492         0.958820
 C         2.570404         0.966857        -0.341537
 C         3.486710        -0.127730        -1.042803
 O         4.609207        -0.811543        -0.350436
 C         4.045281        -1.749239         0.639585
 C         2.847780        -2.352511        -0.096168
 C         2.308519        -1.112113        -0.909338
 H        -0.655009         0.097598        -0.997911
 H        -0.359567        -0.574363         0.775825
 H        -0.330081         1.146262         0.384213
 H         2.685573         2.085007        -0.565735
 H         3.927602         0.189405        -2.023669
 H         4.882376        -2.326686         1.016797
 H         3.677676        -1.164078         1.510112
 H         3.223171        -3.267190        -0.531098
 H         2.089484        -2.718528         0.635194
 H         2.021696        -1.405735        -1.919662
