19
Iteration:   714charge 0 multiplicity 1
 C         0.085839         0.124509        -0.175703
 C         1.528350        -0.044946        -0.073170
 O         2.301864         0.397505         1.025584
 C         2.631809         0.972133        -0.304288
 C         3.439498        -0.129246        -1.038316
 O         4.389813        -0.633298        -0.207779
 C         4.005063        -1.820660         0.506719
 C         2.795817        -2.389724        -0.198371
 C         2.248324        -1.061704        -0.919979
 H        -0.566266        -0.795698         0.043426
 H        -0.251725         0.883210         0.552744
 H        -0.164319         0.530293        -1.205055
 H         2.601514         2.039009        -0.351995
 H         3.938570         0.096388        -1.985962
 H         4.823745        -2.491079         0.482045
 H         3.794976        -1.540843         1.631590
 H         3.100681        -3.042070        -1.012283
 H         2.011106        -2.911080         0.363690
 H         1.695337        -1.128746        -1.885968
