19
Iteration:  4708charge 0 multiplicity 1
 C        -0.054499         0.211064        -0.072840
 C         1.419006         0.010836        -0.212753
 O         2.328743         0.412522         0.837108
 C         2.514245         0.872307        -0.500113
 C         3.537201        -0.147370        -1.073334
 O         4.466502        -0.644878        -0.159914
 C         4.135696        -1.767591         0.618451
 C         2.772056        -2.349421         0.031155
 C         2.288757        -1.160244        -0.948553
 H        -0.647071         0.279407        -0.976029
 H        -0.346592        -0.672796         0.418018
 H        -0.343800         1.022192         0.652601
 H         2.524151         1.952994        -0.537385
 H         4.011055        -0.185268        -2.076114
 H         4.984143        -2.416423         0.670157
 H         3.921762        -1.315140         1.623563
 H         2.784008        -3.303998        -0.460301
 H         2.039795        -2.293983         0.809583
 H         1.868803        -1.711177        -1.797574
