19
Iteration:  2947charge 0 multiplicity 1
 C         0.036944         0.339141        -0.385927
 C         1.440578        -0.028478        -0.119726
 O         2.145054         0.463347         1.118614
 C         2.544587         0.977042        -0.237214
 C         3.373368        -0.165845        -0.991878
 O         4.555143        -0.800744        -0.567796
 C         4.228131        -1.856557         0.470759
 C         2.835989        -2.339809         0.126150
 C         2.209752        -1.207561        -0.766186
 H        -0.680671        -0.517729        -0.256524
 H        -0.104938         1.062218         0.456330
 H        -0.153331         0.971765        -1.265454
 H         2.565807         2.082998        -0.488763
 H         3.618007        -0.005970        -2.077514
 H         5.009209        -2.629715         0.600555
 H         4.327249        -1.230747         1.425448
 H         2.874995        -3.247666        -0.450259
 H         2.337560        -2.490254         1.118651
 H         1.833215        -1.547880        -1.756171
