19
Iteration:   571
 C        -0.084873         0.231983        -0.197907
 C         1.442240         0.095353        -0.302388
 O         1.904869         0.325218         1.064451
 C         2.589075         0.936396        -0.006370
 C         3.570786        -0.069201        -0.914164
 O         4.702331        -0.844549        -0.453131
 C         4.279577        -1.900216         0.412775
 C         2.737775        -2.258568        -0.079718
 C         2.302418        -1.051274        -0.948032
 H        -0.396005        -0.605363         0.508535
 H        -0.440850         1.220533         0.181407
 H        -0.602675        -0.010108        -1.130453
 H         2.682109         2.037089         0.192500
 H         3.854927         0.535276        -1.793893
 H         5.013928        -2.670515         0.293138
 H         4.213646        -1.518537         1.515220
 H         2.728477        -3.169853        -0.665839
 H         1.997585        -2.291149         0.787400
 H         2.054434        -1.368566        -1.971789
