19
Iteration:  4043
 C        -0.155233         0.189398        -0.177330
 C         1.382461         0.000854        -0.262393
 O         2.077380         0.406899         0.913662
 C         2.590840         0.965462        -0.353462
 C         3.535855        -0.197550        -0.973596
 O         4.646030        -0.623781        -0.284198
 C         4.209246        -1.907665         0.441193
 C         2.754765        -2.261444         0.142747
 C         2.338522        -1.148157        -0.838323
 H        -0.728345        -0.239317        -1.055493
 H        -0.404919        -0.463365         0.639122
 H        -0.440756         1.246081        -0.081083
 H         2.807871         2.022721        -0.599015
 H         3.974634        -0.069103        -1.985994
 H         4.945821        -2.618478         0.002677
 H         4.316297        -1.652029         1.455531
 H         2.617586        -3.305081        -0.135464
 H         2.236925        -2.077760         1.067264
 H         2.087171        -1.391669        -1.853777
