19
Iteration:  4580
 C        -0.056213         0.345510        -0.405147
 C         1.420939        -0.043947        -0.189240
 O         2.176642         0.370411         0.960647
 C         2.516854         0.904047        -0.365531
 C         3.369310        -0.275459        -1.004446
 O         4.573914        -0.571028        -0.174272
 C         4.362739        -1.963540         0.204989
 C         2.831885        -2.122094         0.325820
 C         2.188865        -1.244363        -0.730566
 H        -0.268856         0.435302        -1.522634
 H        -0.605973        -0.566911        -0.121555
 H        -0.469808         1.360678         0.009688
 H         2.435878         2.001349        -0.410685
 H         3.535376        -0.018851        -2.025946
 H         4.903908        -2.561115        -0.580853
 H         4.863567        -2.236908         1.221802
 H         2.587466        -3.181213         0.376170
 H         2.391497        -1.792136         1.336733
 H         1.871405        -1.760887        -1.616158
