19
Iteration:   915
 C         0.056266         0.113126        -0.269792
 C         1.458603         0.129165        -0.253237
 O         2.056776         0.121613         1.102924
 C         2.703360         0.901972        -0.045740
 C         3.488698        -0.069194        -1.016165
 O         4.628662        -0.711489        -0.453437
 C         4.123788        -1.876216         0.353556
 C         2.647515        -2.090161         0.139006
 C         2.257759        -0.993259        -0.939396
 H        -0.259984        -0.889771         0.034142
 H        -0.427588         0.978835         0.298052
 H        -0.365445         0.214867        -1.282371
 H         2.977282         1.953347         0.018490
 H         3.634998         0.425188        -2.002955
 H         4.641551        -2.850926         0.070986
 H         4.397557        -1.614602         1.397962
 H         2.490948        -3.095584        -0.369107
 H         2.051414        -1.968178         1.008137
 H         1.926553        -1.435124        -1.911019
