19
Iteration:    80
 C        -0.052050         0.343909        -0.549184
 C         1.384173        -0.021776        -0.079352
 O         2.257500         0.189029         1.278876
 C         2.537712         0.855594         0.004789
 C         3.421755        -0.010324        -0.903912
 O         4.584269        -0.662734        -0.454925
 C         4.174234        -1.844741         0.339729
 C         2.799932        -2.344264        -0.095504
 C         2.297103        -1.100961        -0.851306
 H        -0.381487         1.443591        -0.290142
 H         0.047739         0.352187        -1.679326
 H        -0.835304        -0.402799        -0.216495
 H         2.423878         1.967958        -0.171455
 H         3.635724         0.392365        -1.889865
 H         4.960391        -2.534633         0.337006
 H         4.034860        -1.414471         1.385624
 H         2.719568        -3.261226        -0.740711
 H         2.151945        -2.610679         0.878689
 H         1.891523        -1.222275        -1.893325
