19
Iteration:  2440
 C         0.067632         0.624625        -0.473383
 C         1.365062        -0.079176        -0.161885
 O         2.002377         0.219673         1.057191
 C         2.525316         0.821088        -0.201018
 C         3.398199        -0.191860        -0.940005
 O         4.589449        -0.580926        -0.299798
 C         4.349871        -1.921528         0.123665
 C         2.872718        -2.275821         0.282964
 C         2.240101        -1.251834        -0.745673
 H        -0.003016         1.548100        -1.021159
 H        -0.736542        -0.101929        -0.769564
 H        -0.210221         0.944767         0.493532
 H         2.519143         1.892007        -0.274383
 H         3.585472         0.049027        -2.025472
 H         4.851444        -2.612987        -0.595204
 H         4.718620        -1.868028         1.123713
 H         2.524370        -3.348634         0.094234
 H         2.419193        -2.085238         1.219231
 H         1.896821        -1.681515        -1.699675
