19
Iteration:  3464
 C        -0.050132         0.071730        -0.196454
 C         1.497903         0.020772        -0.240004
 O         2.334829         0.376059         0.963390
 C         2.651932         0.928396        -0.307897
 C         3.422271        -0.188020        -1.030334
 O         4.563460        -0.834453        -0.468351
 C         4.034582        -1.617448         0.607203
 C         2.712527        -2.165436         0.119686
 C         2.219722        -1.084355        -0.842795
 H        -0.377969        -0.126465        -1.255334
 H        -0.377356        -0.838153         0.353518
 H        -0.501638         0.974455         0.248262
 H         2.674080         2.029463        -0.280621
 H         3.667062         0.063392        -2.096436
 H         4.700255        -2.501936         0.728751
 H         3.886086        -1.125104         1.571977
 H         2.827334        -3.063279        -0.521165
 H         2.134684        -2.309720         1.001122
 H         2.001569        -1.686712        -1.718376
