19
Iteration:  3751
 C         0.082921         0.080862        -0.086617
 C         1.550442        -0.039121        -0.269602
 O         2.214882         0.333374         0.928159
 C         2.654177         0.959535        -0.245161
 C         3.470919        -0.172852        -1.017297
 O         4.537152        -0.755662        -0.394910
 C         3.968122        -1.538796         0.660175
 C         2.701900        -2.238871        -0.021578
 C         2.237782        -1.145597        -0.972238
 H        -0.413101         0.061296        -1.071144
 H        -0.197411        -0.776504         0.469163
 H        -0.256613         0.904781         0.551140
 H         2.797255         2.068776        -0.269763
 H         3.801700         0.027807        -2.052390
 H         4.709677        -2.322197         0.904812
 H         3.722500        -1.117456         1.642231
 H         2.946232        -3.017635        -0.769772
 H         2.003980        -2.767426         0.659666
 H         1.726849        -1.497940        -1.903308
