19
Iteration:  3022
 C        -0.065062         0.344254        -0.283626
 C         1.393093        -0.010117        -0.226021
 O         2.209300         0.369364         1.052686
 C         2.625085         0.952055        -0.231920
 C         3.386153        -0.164136        -0.988217
 O         4.613642        -0.867245        -0.583483
 C         4.175031        -1.711925         0.528491
 C         2.826674        -2.335838         0.121070
 C         2.242973        -1.168295        -0.779762
 H        -0.723226        -0.529402        -0.627806
 H        -0.461447         0.653430         0.715672
 H        -0.103570         1.270897        -0.911024
 H         2.664695         2.077342        -0.178559
 H         3.704681         0.095263        -2.020135
 H         4.905462        -2.468925         0.815275
 H         4.102233        -1.050085         1.408989
 H         2.818710        -3.318147        -0.339518
 H         2.034483        -2.400612         0.913306
 H         1.754373        -1.576334        -1.699163
