19
Iteration:   542charge 0 multiplicity 1
 C        -0.048667         0.377859        -0.195635
 C         1.396397        -0.044268        -0.119040
 O         2.116616         0.353479         1.026483
 C         2.552015         0.879017        -0.233746
 C         3.449969        -0.063431        -0.899740
 O         4.577419        -0.643743        -0.261276
 C         4.194116        -1.913770         0.405392
 C         2.890517        -2.418097        -0.237336
 C         2.259068        -1.152135        -0.827518
 H        -0.824215        -0.319921        -0.122319
 H        -0.266195         1.190133         0.434330
 H        -0.169842         0.705633        -1.227555
 H         2.612090         1.951083        -0.101679
 H         3.712178         0.338769        -1.900909
 H         5.054349        -2.557955         0.279740
 H         3.989045        -1.750677         1.442288
 H         3.124937        -3.086396        -1.074852
 H         2.239190        -2.808867         0.526656
 H         1.966624        -1.334307        -1.926364
