19
Iteration:   164
 C        -0.001176         0.236702        -0.218141
 C         1.438935         0.001059        -0.129739
 O         2.217022         0.247263         1.099675
 C         2.536976         0.936837        -0.156970
 C         3.498036        -0.014535        -0.994800
 O         4.532242        -0.645030        -0.248744
 C         4.036134        -1.874275         0.507350
 C         2.849478        -2.383982        -0.307213
 C         2.314471        -1.066791        -0.946200
 H        -0.370086         0.980480         0.460082
 H        -0.293148         0.467363        -1.192239
 H        -0.454075        -0.678604         0.030104
 H         2.456072         2.052675        -0.142874
 H         3.918507         0.397481        -1.939308
 H         4.892892        -2.597263         0.564399
 H         3.746719        -1.602385         1.519480
 H         3.094473        -3.016933        -1.115668
 H         2.107787        -2.773498         0.268773
 H         1.707378        -1.219197        -1.838664
