19
Iteration:  3336
 C        -0.063309         0.197963        -0.204841
 C         1.383288        -0.030786        -0.206986
 O         2.264420         0.470408         0.980480
 C         2.604855         0.955428        -0.290608
 C         3.479315        -0.171813        -1.019509
 O         4.506594        -0.701524        -0.273832
 C         4.247309        -1.936005         0.435207
 C         2.745667        -2.223747         0.009268
 C         2.228362        -1.113145        -0.806123
 H        -0.525367        -0.358857        -1.082744
 H        -0.557278        -0.136805         0.666931
 H        -0.411347         1.190873        -0.447002
 H         2.711269         2.020426        -0.518212
 H         3.752598        -0.094385        -2.074373
 H         4.951512        -2.770462         0.215729
 H         4.283220        -1.630731         1.482575
 H         2.813243        -3.201770        -0.440413
 H         2.185155        -2.325207         0.935444
 H         1.822645        -1.456012        -1.765437
