19
Iteration:    29charge 0 multiplicity 1
 C        -0.179128         0.503123        -0.272407
 C         1.338815         0.048983        -0.162644
 O         1.967344         0.375778         1.129087
 C         2.477134         0.889941        -0.126924
 C         3.511308        -0.156991        -0.852569
 O         4.675747        -0.744631        -0.405762
 C         4.269340        -1.888547         0.430013
 C         2.983122        -2.435223        -0.244067
 C         2.344623        -1.183994        -0.860061
 H        -0.211635         1.279191         0.501171
 H        -0.482066         0.990305        -1.219359
 H        -0.891058        -0.305863        -0.029499
 H         2.607380         1.970734        -0.057705
 H         3.744287         0.139932        -1.906762
 H         5.117398        -2.652367         0.400271
 H         4.201484        -1.562885         1.478464
 H         3.288887        -3.258650        -0.981408
 H         2.276248        -3.036356         0.471875
 H         1.978635        -1.325056        -1.888883
