19
Iteration:  2985charge 0 multiplicity 1
 C        -0.097551         0.263002        -0.325619
 C         1.495205         0.125822        -0.250814
 O         2.080516         0.161011         1.127964
 C         2.739737         0.858515        -0.176673
 C         3.424986        -0.270092        -1.101239
 O         4.641054        -0.859612        -0.614649
 C         4.231489        -1.665071         0.535163
 C         2.748099        -2.022457         0.283244
 C         2.180199        -1.111219        -0.922136
 H        -0.691126        -0.586576        -0.598711
 H        -0.292460         0.535985         0.672661
 H        -0.488965         0.991897        -1.035816
 H         3.180893         1.748633         0.143286
 H         3.402278         0.243165        -2.039525
 H         4.917750        -2.495720         0.327590
 H         4.197409        -1.233175         1.508360
 H         2.641833        -3.126408        -0.011587
 H         2.240900        -1.735707         1.213485
 H         1.549995        -1.649746        -1.634084
