19
Iteration:  1895charge 0 multiplicity 1
 C         0.037601        -0.064386        -0.184043
 C         1.517387         0.079195        -0.265038
 O         2.228200         0.239522         1.123226
 C         2.733079         0.960807        -0.097771
 C         3.443443        -0.031475        -1.052623
 O         4.585667        -0.725031        -0.292010
 C         3.986355        -1.781778         0.488126
 C         2.665757        -2.181245        -0.103607
 C         2.247687        -0.941492        -1.054666
 H        -0.246018        -1.079405         0.097513
 H        -0.525303         0.600673         0.437723
 H        -0.394481         0.090381        -1.226064
 H         2.846558         2.043171        -0.025370
 H         3.839664         0.384905        -2.012801
 H         4.719240        -2.664447         0.582164
 H         3.786863        -1.515512         1.586400
 H         2.750427        -3.119971        -0.761647
 H         1.801355        -2.480993         0.540486
 H         1.697776        -1.294073        -2.006458
