19
Iteration:   883
 C        -0.122728         0.344394        -0.321630
 C         1.349079        -0.004909        -0.240012
 O         1.962886         0.243651         1.123624
 C         2.629223         0.865862         0.024259
 C         3.487466        -0.058030        -0.893302
 O         4.735758        -0.878256        -0.649764
 C         4.257236        -1.783213         0.426084
 C         2.810417        -2.255984         0.079477
 C         2.266028        -1.029258        -0.892622
 H        -0.862850        -0.431003        -0.241828
 H        -0.360936         1.107982         0.489873
 H        -0.250619         0.853110        -1.291080
 H         2.875880         1.931327         0.010188
 H         3.661598         0.600392        -1.770542
 H         4.936792        -2.726215         0.379830
 H         4.362123        -1.241077         1.372254
 H         2.971247        -3.233155        -0.500786
 H         2.195876        -2.570323         0.946305
 H         2.034827        -1.427205        -1.894406
