19
Iteration:  2795
 C        -0.018395         0.140674        -0.088648
 C         1.469310        -0.000453        -0.139271
 O         2.221701         0.545472         0.986393
 C         2.615323         1.010805        -0.310026
 C         3.446591        -0.115249        -0.995089
 O         4.584802        -0.843853        -0.349802
 C         4.060665        -1.882093         0.534699
 C         2.766012        -2.330282        -0.153484
 C         2.309306        -1.099708        -0.868156
 H        -0.362077         1.093642        -0.532036
 H        -0.513539        -0.543693        -0.798503
 H        -0.461379        -0.013805         0.883585
 H         2.484989         2.064237        -0.477663
 H         3.766978         0.190259        -2.023536
 H         4.884737        -2.554117         0.760739
 H         3.750744        -1.393920         1.540554
 H         2.875927        -3.211651        -0.794654
 H         1.906245        -2.572288         0.617524
 H         1.851785        -1.299623        -1.849517
