19
Iteration:   713charge 0 multiplicity 1
 C         0.084158         0.137651        -0.168024
 C         1.520760        -0.045678        -0.079452
 O         2.293268         0.399534         1.024086
 C         2.625132         0.967868        -0.304739
 C         3.448361        -0.138087        -1.041817
 O         4.394780        -0.635926        -0.205143
 C         4.008693        -1.818658         0.505416
 C         2.804978        -2.390410        -0.204900
 C         2.250138        -1.067355        -0.914891
 H        -0.590452        -0.796330         0.040873
 H        -0.251622         0.919192         0.562143
 H        -0.157976         0.537141        -1.202967
 H         2.569692         2.043986        -0.327658
 H         3.945539         0.087819        -1.987955
 H         4.862014        -2.493969         0.493895
 H         3.794864        -1.542155         1.611619
 H         3.099133        -3.003599        -1.040375
 H         1.989357        -2.911882         0.372433
 H         1.691067        -1.131340        -1.844714
