19
Iteration:  4723
 C        -0.107373         0.178640        -0.027777
 C         1.443192        -0.051017        -0.288564
 O         2.226152         0.486833         0.790180
 C         2.605753         0.965120        -0.505597
 C         3.451507        -0.243300        -1.001588
 O         4.537967        -0.617850        -0.138729
 C         4.191447        -1.848914         0.573465
 C         2.780087        -2.264225         0.044244
 C         2.263292        -1.207491        -0.862643
 H        -0.529051         0.628128        -1.012489
 H        -0.669114        -0.783423         0.241180
 H        -0.189111         1.065451         0.696418
 H         2.559792         2.007861        -0.834149
 H         3.897917         0.009949        -1.947684
 H         4.907501        -2.674820         0.299153
 H         4.155083        -1.725995         1.691631
 H         2.909940        -3.191277        -0.532182
 H         2.151815        -2.522578         0.931908
 H         1.911545        -1.388660        -1.865434
