19
Iteration:   694
 C        -0.081744         0.390805        -0.097564
 C         1.385358        -0.035152        -0.145599
 O         2.176219         0.419008         1.004315
 C         2.520008         0.921061        -0.316825
 C         3.461055        -0.162341        -0.956024
 O         4.646224        -0.673813        -0.190868
 C         4.113426        -1.872399         0.515053
 C         2.934574        -2.405277        -0.313769
 C         2.227934        -1.166683        -0.899808
 H        -0.674995        -0.365470         0.388197
 H        -0.174008         1.176226         0.620153
 H        -0.545150         0.712192        -1.042812
 H         2.516562         1.952803        -0.604758
 H         3.820090         0.058057        -1.976028
 H         4.847085        -2.612426         0.639940
 H         3.700612        -1.567350         1.551830
 H         3.271646        -3.121256        -1.086042
 H         2.375722        -3.063717         0.296685
 H         1.844839        -1.462059        -1.949600
