19
Iteration:  2014
 C        -0.012659         0.179343        -0.371416
 C         1.434078        -0.017265        -0.167213
 O         2.064944         0.354331         1.141717
 C         2.499483         1.024876        -0.090563
 C         3.514622         0.005430        -0.843347
 O         4.607123        -0.653529        -0.165808
 C         4.242793        -2.061656         0.036590
 C         2.738323        -2.287497        -0.076854
 C         2.314495        -1.074788        -0.837382
 H        -0.648183        -0.596096         0.074299
 H        -0.363995         1.161443        -0.037209
 H        -0.206446         0.008313        -1.471880
 H         2.515929         2.087533        -0.204466
 H         3.769869         0.341910        -1.871747
 H         4.841578        -2.668559        -0.596100
 H         4.649738        -2.371111         1.033411
 H         2.457876        -3.365650        -0.182285
 H         2.428795        -2.206819         0.990734
 H         1.892214        -1.152194        -1.859597
