19
Iteration:  4017charge 0 multiplicity 1
 C        -0.024304         0.286916        -0.150502
 C         1.375719        -0.085781        -0.373269
 O         2.089178         0.333651         0.853530
 C         2.469866         0.998933        -0.333790
 C         3.425998        -0.184715        -1.008506
 O         4.583797        -0.612689        -0.156752
 C         4.339418        -1.924730         0.418253
 C         2.805821        -2.178155         0.169247
 C         2.305365        -1.236569        -0.860917
 H        -0.622403         0.405939        -1.036969
 H        -0.530393        -0.418927         0.570363
 H         0.107103         1.320500         0.199645
 H         2.604093         2.049865        -0.512005
 H         4.007109         0.057827        -1.895404
 H         4.924580        -2.621312        -0.128796
 H         4.560696        -1.775913         1.489194
 H         2.665278        -3.265226        -0.164340
 H         2.154039        -2.079119         1.080437
 H         1.849116        -1.652098        -1.806940
