19
Iteration:  1211charge 0 multiplicity 1
 C        -0.047031         0.237409        -0.436383
 C         1.443182         0.085550        -0.202836
 O         1.951661         0.229464         1.106982
 C         2.572659         1.002077         0.095559
 C         3.463053        -0.073569        -0.885613
 O         4.657665        -0.693534        -0.454046
 C         4.334457        -2.038429         0.266755
 C         2.799458        -2.249075         0.062974
 C         2.283333        -1.060396        -0.919937
 H        -0.629140        -0.363399         0.324893
 H        -0.300358         1.265594        -0.257978
 H        -0.443326        -0.000934        -1.446804
 H         2.545851         2.113740         0.246765
 H         3.683416         0.520553        -1.769435
 H         4.948896        -2.774603        -0.186844
 H         4.525926        -1.773707         1.354068
 H         2.507527        -3.166837        -0.310010
 H         2.244094        -2.190437         0.958450
 H         1.844604        -1.384262        -1.851966
