19
Iteration:  1170charge 0 multiplicity 1
 C         0.135017         0.597965        -0.535038
 C         1.349757        -0.075853        -0.097940
 O         1.882141         0.218006         1.196248
 C         2.559107         0.877536         0.052959
 C         3.263428        -0.082176        -0.954539
 O         4.650008        -0.656664        -0.550072
 C         4.402873        -1.838442         0.366876
 C         2.970212        -2.368134        -0.052900
 C         2.160896        -1.276318        -0.720012
 H        -0.780598        -0.065120        -0.303095
 H         0.119139         1.541701        -0.022120
 H         0.166930         0.795054        -1.631258
 H         2.453748         1.975237         0.033396
 H         3.278518         0.284650        -1.996806
 H         5.206584        -2.604721         0.238863
 H         4.419195        -1.509894         1.429129
 H         3.142980        -3.139031        -0.773638
 H         2.494952        -2.911111         0.843290
 H         1.744282        -1.702363        -1.589349
