19
Iteration:  4472
 C        -0.084246         0.200162        -0.357825
 C         1.392301         0.011951        -0.201771
 O         2.141191         0.502319         0.929730
 C         2.575890         0.909640        -0.382673
 C         3.422604        -0.246130        -0.978528
 O         4.544401        -0.593583        -0.105939
 C         4.295235        -1.997651         0.113578
 C         2.845189        -2.225777         0.320054
 C         2.259293        -1.153231        -0.681500
 H        -0.315849        -0.304517        -1.272255
 H        -0.660035        -0.276186         0.375295
 H        -0.366446         1.267629        -0.395340
 H         2.559084         1.999982        -0.556438
 H         3.669768         0.022494        -2.055375
 H         4.650705        -2.637235        -0.690577
 H         4.939926        -2.187569         1.007537
 H         2.599181        -3.233682        -0.015512
 H         2.416754        -1.853691         1.307308
 H         1.925948        -1.647919        -1.577836
