19
Iteration:  3402charge 0 multiplicity 1
 C        -0.053617         0.212191         0.101709
 C         1.430616         0.044189        -0.212468
 O         2.262576         0.629901         0.821634
 C         2.546751         1.010268        -0.597892
 C         3.462345        -0.200764        -1.029123
 O         4.521880        -0.719242        -0.117020
 C         4.104974        -1.923375         0.642406
 C         2.863029        -2.439123        -0.124092
 C         2.268119        -1.205598        -0.879893
 H        -0.564520         0.376024        -0.911663
 H        -0.527730        -0.704588         0.385208
 H        -0.343819         1.050722         0.718485
 H         2.458122         2.121671        -0.666268
 H         3.843950        -0.105079        -2.060388
 H         5.004562        -2.515827         0.489152
 H         3.927039        -1.673069         1.664938
 H         3.082830        -3.077172        -0.986424
 H         2.190280        -3.121198         0.416574
 H         1.780553        -1.218682        -1.856984
