19
Iteration:  4393charge 0 multiplicity 1
 C        -0.049586         0.150729        -0.287652
 C         1.413509         0.005698        -0.095180
 O         2.181858         0.496990         0.985741
 C         2.573072         0.930941        -0.415806
 C         3.447904        -0.189354        -0.936754
 O         4.591142        -0.643170        -0.369498
 C         4.231178        -1.894347         0.474605
 C         2.792346        -2.311206         0.135286
 C         2.218670        -1.119802        -0.802655
 H        -0.240479         0.039283        -1.357086
 H        -0.534888        -0.666960         0.071401
 H        -0.442448         1.147838        -0.171990
 H         2.598235         1.983315        -0.681964
 H         3.531322        -0.108405        -2.056012
 H         4.942472        -2.689360         0.244384
 H         4.525477        -1.530122         1.452804
 H         2.502798        -3.346255        -0.170421
 H         2.126576        -2.208111         1.019990
 H         1.965950        -1.478401        -1.795749
