19
Iteration:  1927charge 0 multiplicity 1
 C        -0.067612         0.231382        -0.078764
 C         1.460224         0.017953        -0.198748
 O         2.126175         0.161297         1.048264
 C         2.583902         0.954522        -0.175285
 C         3.490383        -0.054328        -0.987592
 O         4.669927        -0.774704        -0.329938
 C         4.017882        -1.746682         0.567045
 C         2.842256        -2.308969        -0.224271
 C         2.316050        -1.020502        -1.012772
 H        -0.605816        -0.621760         0.367107
 H        -0.291114         1.099379         0.533983
 H        -0.566876         0.294339        -1.099042
 H         2.563722         2.040969        -0.202053
 H         3.801671         0.311446        -2.001528
 H         4.819158        -2.468840         0.832630
 H         3.595678        -1.200105         1.485789
 H         3.218037        -3.032944        -1.048992
 H         1.958537        -2.734082         0.320451
 H         1.924754        -1.095678        -2.081924
