19
Iteration:  3741
 C        -0.013614         0.135699        -0.034129
 C         1.447018         0.066697        -0.298063
 O         2.210506         0.381090         0.966156
 C         2.615044         0.963358        -0.354254
 C         3.518262        -0.161726        -0.994341
 O         4.543208        -0.810083        -0.368191
 C         4.031381        -1.635425         0.663405
 C         2.803661        -2.366614        -0.069755
 C         2.289417        -1.144259        -0.931961
 H        -0.564349         0.005432        -0.975792
 H        -0.375948        -0.738328         0.486711
 H        -0.306452         1.112745         0.361269
 H         2.416240         2.024086        -0.091885
 H         3.778992         0.171999        -2.033222
 H         4.856429        -2.320358         0.895084
 H         3.722345        -0.914191         1.427710
 H         3.117669        -3.156414        -0.749757
 H         1.939742        -2.573462         0.581764
 H         1.932959        -1.376412        -1.972712
