19
Iteration:  3187
 C        -0.029834         0.266743        -0.150734
 C         1.444343         0.043555        -0.274634
 O         2.198058         0.482472         0.967390
 C         2.682056         0.900437        -0.345284
 C         3.406451        -0.256686        -1.069816
 O         4.544783        -0.845250        -0.392975
 C         4.108451        -1.641423         0.611205
 C         2.867973        -2.328507         0.067044
 C         2.238106        -1.164018        -0.815868
 H        -0.600158         0.308985        -1.043816
 H        -0.611902        -0.621640         0.216228
 H        -0.203161         1.086872         0.546861
 H         2.606738         1.955693        -0.591673
 H         3.621534        -0.109379        -2.124637
 H         4.830974        -2.398395         0.855645
 H         3.916870        -1.097367         1.545602
 H         2.885038        -3.128973        -0.638355
 H         2.067667        -2.704342         0.767660
 H         1.862296        -1.659001        -1.719247
