19
Iteration:  4013
 C        -0.004749         0.298536        -0.177788
 C         1.388596        -0.106377        -0.331180
 O         2.078266         0.329158         0.880994
 C         2.501549         0.999987        -0.354065
 C         3.431665        -0.229859        -1.012610
 O         4.537508        -0.583139        -0.153682
 C         4.312343        -1.914305         0.412101
 C         2.824199        -2.206317         0.149691
 C         2.298748        -1.195728        -0.883473
 H        -0.578142         0.382530        -1.114435
 H        -0.519459        -0.346622         0.531419
 H         0.015880         1.273027         0.370388
 H         2.632285         2.095876        -0.478831
 H         3.855628        -0.062470        -2.031032
 H         5.058458        -2.592984        -0.126983
 H         4.563045        -1.853103         1.518753
 H         2.632733        -3.240241        -0.000347
 H         2.334157        -2.013789         1.147604
 H         1.983538        -1.661414        -1.816780
