19
Iteration:  2697
 C        -0.041023         0.310491        -0.366896
 C         1.385791         0.117647        -0.223376
 O         2.034994         0.231258         1.065938
 C         2.688016         0.847214         0.001671
 C         3.486207        -0.114956        -0.977215
 O         4.630955        -0.740879        -0.487149
 C         4.226089        -1.915425         0.293598
 C         2.725417        -2.115374         0.225477
 C         2.280014        -1.114504        -0.899521
 H        -0.398147         0.155871        -1.410248
 H        -0.471153        -0.604342         0.145414
 H        -0.489886         1.192071         0.117130
 H         2.971919         1.870938         0.102415
 H         3.639753         0.438337        -1.919824
 H         4.685639        -2.712212        -0.250318
 H         4.747151        -1.864678         1.284250
 H         2.489954        -3.119046        -0.149691
 H         2.157375        -2.086069         1.218171
 H         1.870991        -1.631079        -1.771675
