19
Iteration:  3601charge 0 multiplicity 1
 C        -0.088643         0.093328        -0.362472
 C         1.402174         0.006838        -0.215620
 O         1.942797         0.490232         0.944972
 C         2.605323         0.973299        -0.296486
 C         3.502253        -0.172559        -0.880645
 O         4.742666        -0.739829        -0.171451
 C         4.302940        -2.098492        -0.015587
 C         2.773732        -2.035552         0.369766
 C         2.238684        -1.074605        -0.755308
 H        -0.354818         0.317690        -1.420554
 H        -0.647527        -0.878442        -0.086758
 H        -0.498697         0.944684         0.239890
 H         2.611702         2.035093        -0.166870
 H         3.782168         0.168589        -1.887867
 H         4.496637        -2.677990        -0.945252
 H         4.901613        -2.501476         0.825562
 H         2.323423        -3.058686         0.482660
 H         2.713773        -1.384250         1.308934
 H         1.732988        -1.605913        -1.571718
