19
Iteration:  4710
 C        -0.057466         0.221915        -0.067615
 C         1.416333         0.001352        -0.219325
 O         2.320045         0.418708         0.823407
 C         2.526494         0.884965        -0.505614
 C         3.547992        -0.160045        -1.059216
 O         4.464201        -0.656550        -0.152881
 C         4.150888        -1.771252         0.609251
 C         2.772656        -2.333698         0.016284
 C         2.284480        -1.170371        -0.930899
 H        -0.681211         0.278722        -1.020532
 H        -0.434004        -0.700516         0.423006
 H        -0.401996         1.002319         0.739296
 H         2.481550         1.949547        -0.572797
 H         3.975305        -0.131020        -2.046399
 H         5.064548        -2.331049         0.622276
 H         3.953748        -1.404420         1.679098
 H         2.753772        -3.266565        -0.450307
 H         2.014605        -2.281861         0.816412
 H         1.899949        -1.711397        -1.767818
