19
Iteration:  1678
 C        -0.056461         0.315780        -0.419108
 C         1.400716         0.007298        -0.108759
 O         2.090735         0.253050         1.116361
 C         2.615934         0.946145        -0.192285
 C         3.431338        -0.079780        -0.928611
 O         4.583232        -0.603251        -0.109094
 C         4.340075        -2.016109         0.039919
 C         2.822075        -2.258352         0.110301
 C         2.173539        -1.132467        -0.866410
 H        -0.780539        -0.565666        -0.382921
 H        -0.552435         1.169435         0.096718
 H        -0.067023         0.869781        -1.446920
 H         2.522366         2.054187        -0.141929
 H         3.814936         0.345453        -1.867938
 H         4.788802        -2.632469        -0.743160
 H         4.714986        -2.252427         0.969836
 H         2.589861        -3.274824        -0.215998
 H         2.439721        -2.209745         1.104203
 H         1.883237        -1.623044        -1.818509
