19
Iteration:  4899charge 0 multiplicity 1
 C        -0.080259         0.146640        -0.539714
 C         1.385172         0.016990        -0.122056
 O         2.142236         0.673273         0.951029
 C         2.496307         0.945584        -0.389669
 C         3.474114        -0.250111        -0.926537
 O         4.551935        -0.650437        -0.133575
 C         4.350130        -2.062736         0.068882
 C         2.828595        -2.265967         0.312593
 C         2.254541        -1.094035        -0.500428
 H        -0.069195        -0.024718        -1.674993
 H        -0.589889        -0.664012         0.065149
 H        -0.594061         1.018810        -0.185564
 H         2.308140         1.941010        -0.772258
 H         3.649400        -0.269329        -2.039512
 H         4.686721        -2.665826        -0.778287
 H         5.107583        -2.298095         0.853283
 H         2.441283        -3.296619        -0.027917
 H         2.553473        -2.126838         1.352024
 H         1.761585        -1.530304        -1.419364
