19
Iteration:  1380
 C        -0.040368         0.177082        -0.383444
 C         1.442778         0.077055        -0.213237
 O         2.071805         0.205388         1.133500
 C         2.576561         0.985901        -0.079529
 C         3.537887        -0.013111        -0.866937
 O         4.567555        -0.653246        -0.118214
 C         4.264637        -2.104774        -0.026596
 C         2.750575        -2.121348         0.045179
 C         2.255417        -1.060883        -0.881149
 H        -0.635270        -0.323471         0.402392
 H        -0.395721         1.259340        -0.549573
 H        -0.464738        -0.295203        -1.312347
 H         2.495772         2.087334         0.024567
 H         3.918759         0.371845        -1.840463
 H         4.768564        -2.713786        -0.787970
 H         4.773060        -2.407421         0.856077
 H         2.394697        -3.139820        -0.022534
 H         2.402569        -1.860856         1.052671
 H         1.927368        -1.422810        -1.911016
