19
Iteration:  3839
 C        -0.111038         0.336224        -0.399139
 C         1.323897        -0.029573        -0.183553
 O         2.059385         0.533438         0.987851
 C         2.515253         0.917351        -0.267547
 C         3.388092        -0.172720        -0.855890
 O         4.662789        -0.642853        -0.298195
 C         4.388658        -2.003796         0.289747
 C         2.906157        -2.327431         0.129491
 C         2.207703        -1.199429        -0.713077
 H        -0.397251         0.071298        -1.424964
 H        -0.779504        -0.266510         0.201228
 H        -0.275019         1.387750        -0.134323
 H         2.793869         1.982075        -0.593407
 H         3.615580         0.088057        -1.932745
 H         5.099747        -2.585155        -0.352319
 H         4.794462        -2.152947         1.333200
 H         2.801906        -3.276260        -0.399552
 H         2.513312        -2.434554         1.185751
 H         1.714421        -1.634461        -1.637138
