19
Iteration:  2211
 C         0.052769        -0.017097        -0.209983
 C         1.503765         0.013524        -0.170601
 O         2.248210         0.229745         1.085627
 C         2.685228         0.930939        -0.049989
 C         3.507484        -0.030080        -1.076910
 O         4.502936        -0.806511        -0.349677
 C         3.967898        -1.697429         0.547531
 C         2.692181        -2.210100        -0.170829
 C         2.244749        -0.896328        -1.030740
 H        -0.258147        -1.024563         0.129352
 H        -0.553631         0.646741         0.500300
 H        -0.162326         0.078205        -1.278913
 H         2.782522         2.033469        -0.004882
 H         4.028695         0.365767        -1.941947
 H         4.690824        -2.502073         0.734948
 H         3.660069        -1.136863         1.429800
 H         3.034234        -3.030878        -0.845830
 H         2.044525        -2.407134         0.658629
 H         1.733629        -1.250500        -1.945465
