19
Iteration:  1872charge 0 multiplicity 1
 C        -0.044009        -0.024571        -0.203339
 C         1.467677        -0.021486        -0.149978
 O         2.232394         0.338457         0.991461
 C         2.569164         1.054307        -0.186739
 C         3.550093        -0.001263        -0.878625
 O         4.607868        -0.766601        -0.276567
 C         4.095492        -1.915449         0.318157
 C         2.638379        -2.195878        -0.069670
 C         2.320621        -0.973908        -0.919939
 H        -0.542660        -0.954070         0.034661
 H        -0.622273         0.687641         0.343869
 H        -0.368089         0.137559        -1.290632
 H         2.637501         2.173342        -0.113043
 H         4.019195         0.450189        -1.783981
 H         4.857918        -2.708130         0.261132
 H         3.941268        -1.767710         1.474637
 H         2.425014        -3.088903        -0.753952
 H         1.911795        -2.384979         0.748559
 H         2.001268        -1.086194        -2.001687
