19
Iteration:  2080
 C        -0.018908         0.189019        -0.392548
 C         1.399756         0.017439        -0.172643
 O         2.002438         0.377060         1.116552
 C         2.509539         0.968341        -0.155938
 C         3.473609        -0.075608        -0.835152
 O         4.546015        -0.650333        -0.081270
 C         4.291754        -2.078641        -0.133310
 C         2.798185        -2.238311         0.061122
 C         2.395506        -1.047517        -0.749981
 H        -0.540162        -0.759323        -0.220109
 H        -0.382290         1.049287         0.229877
 H        -0.144436         0.609559        -1.416487
 H         2.552027         2.017419        -0.113778
 H         3.807625         0.210095        -1.837096
 H         4.695277        -2.572711        -1.121185
 H         4.883388        -2.623943         0.654864
 H         2.346848        -3.233616        -0.193755
 H         2.422842        -1.983170         1.058523
 H         2.248704        -1.484522        -1.771330
