19
Iteration:  1810
 C        -0.110791         0.500762        -0.370137
 C         1.388715        -0.077859        -0.152777
 O         2.184288         0.333269         1.080850
 C         2.424686         0.941511        -0.203498
 C         3.420612        -0.119843        -0.832481
 O         4.500108        -0.562425        -0.085548
 C         4.397489        -2.046159         0.083758
 C         2.838583        -2.413780        -0.022771
 C         2.313662        -1.131659        -0.838501
 H        -0.736623        -0.058578         0.336445
 H        -0.095180         1.583244        -0.144778
 H        -0.332822         0.075065        -1.344333
 H         2.219533         2.003997        -0.267647
 H         3.800518         0.118683        -1.847479
 H         5.111881        -2.540505        -0.649132
 H         4.791251        -2.214598         1.017006
 H         2.817562        -3.228631        -0.741105
 H         2.313993        -2.687999         0.876080
 H         1.944824        -1.547754        -1.831890
