19
Iteration:  4152charge 0 multiplicity 1
 C        -0.058763         0.425506        -0.185929
 C         1.372147        -0.083047        -0.220130
 O         2.214498         0.169049         0.969433
 C         2.555079         0.810163        -0.391414
 C         3.477502        -0.195786        -1.091091
 O         4.640299        -0.655943        -0.353717
 C         4.161745        -1.550324         0.644698
 C         2.802796        -2.209663         0.116682
 C         2.208648        -1.294241        -0.903340
 H        -0.478061         0.739198        -1.190174
 H        -0.698518        -0.381676         0.177311
 H        -0.215050         1.254148         0.541748
 H         2.539480         1.886028        -0.566174
 H         3.763142        -0.060083        -2.152672
 H         4.924431        -2.352598         0.671439
 H         3.959228        -1.096408         1.622131
 H         3.022582        -3.177992        -0.385814
 H         2.185826        -2.491656         0.949452
 H         1.959763        -1.699519        -1.883694
