19
Iteration:  1512
 C        -0.054671         0.356422        -0.215527
 C         1.406516        -0.061503        -0.231297
 O         2.091144         0.290878         1.011748
 C         2.483558         0.938256        -0.307659
 C         3.476743        -0.116394        -0.842330
 O         4.557021        -0.604614         0.038804
 C         4.308015        -2.014235         0.064612
 C         2.770834        -2.282680         0.002059
 C         2.335487        -1.132255        -0.898788
 H        -0.841828        -0.364593         0.184076
 H        -0.020596         1.319704         0.379105
 H        -0.302211         0.820611        -1.274495
 H         2.425695         2.012609        -0.401723
 H         3.896052         0.166259        -1.836363
 H         4.625332        -2.355252        -0.998895
 H         4.941866        -2.345563         0.902436
 H         2.546469        -3.278873        -0.386548
 H         2.402065        -2.067723         1.040200
 H         2.099408        -1.474423        -1.979148
