19
Iteration:  3699charge 0 multiplicity 1
 C         0.004658         0.265557        -0.232578
 C         1.440406         0.057521        -0.133091
 O         2.150906         0.549822         0.999398
 C         2.510081         0.942325        -0.384592
 C         3.409593        -0.210894        -0.968372
 O         4.494363        -0.628695        -0.198771
 C         4.277023        -1.885872         0.442483
 C         2.866650        -2.491892        -0.108816
 C         2.237471        -1.163793        -0.770362
 H        -0.491134        -0.240782        -1.066514
 H        -0.465311        -0.271419         0.673466
 H        -0.178378         1.354231        -0.123017
 H         2.652132         1.919392        -0.878143
 H         3.770723        -0.154805        -2.042356
 H         5.121895        -2.548524         0.214317
 H         4.085060        -1.818242         1.530581
 H         2.992915        -3.219854        -0.950922
 H         2.301440        -2.916117         0.759938
 H         1.797678        -1.317929        -1.781797
