19
Iteration:  2791charge 0 multiplicity 1
 C        -0.040402         0.157890        -0.126759
 C         1.483927         0.013866        -0.126377
 O         2.209923         0.545767         0.988822
 C         2.614088         1.001869        -0.326745
 C         3.408542        -0.134937        -0.971537
 O         4.581684        -0.848444        -0.355628
 C         4.102059        -1.877332         0.532236
 C         2.766183        -2.308133        -0.143282
 C         2.333668        -1.108949        -0.861001
 H        -0.311772         1.163850        -0.559905
 H        -0.644545        -0.473321        -0.732049
 H        -0.491195         0.121446         0.894354
 H         2.402625         2.070972        -0.399492
 H         3.799998         0.181831        -1.945091
 H         4.973498        -2.578329         0.668669
 H         3.777652        -1.631939         1.545987
 H         2.888874        -3.157200        -0.804279
 H         2.059762        -2.743536         0.536522
 H         1.736530        -1.371778        -1.782725
