19
Iteration:  3063charge 0 multiplicity 1
 C         0.021591         0.333620        -0.165866
 C         1.445473         0.014781        -0.106402
 O         2.256005         0.653393         0.921828
 C         2.527367         0.934490        -0.427161
 C         3.399504        -0.276719        -1.030359
 O         4.505155        -0.675921        -0.211089
 C         4.190324        -1.871990         0.498944
 C         2.836523        -2.492439        -0.178992
 C         2.186757        -1.256504        -0.650309
 H        -0.598526        -0.538509        -0.480312
 H        -0.344121         0.717161         0.721502
 H        -0.124182         1.203001        -0.793647
 H         2.734235         1.991589        -0.673634
 H         3.426593        -0.169287        -2.094346
 H         5.112525        -2.490184         0.577165
 H         3.902238        -1.693181         1.528339
 H         3.166814        -3.021841        -1.120409
 H         2.413209        -3.122471         0.612180
 H         1.707169        -1.462895        -1.648658
