19
Iteration:  1230charge 0 multiplicity 1
 C        -0.010050         0.057448        -0.294444
 C         1.456298         0.089188        -0.248059
 O         1.992562         0.214006         1.052327
 C         2.638066         0.905868        -0.075211
 C         3.542796         0.027442        -0.853622
 O         4.640542        -0.733226        -0.292660
 C         4.165070        -1.938119         0.166032
 C         2.652847        -2.073822         0.058250
 C         2.356651        -1.006679        -0.886312
 H        -0.302093        -0.628985         0.452811
 H        -0.556176         0.962724         0.016808
 H        -0.352454        -0.262878        -1.271716
 H         2.743956         1.986260         0.108438
 H         3.807325         0.382920        -1.856565
 H         4.526498        -2.763836        -0.480323
 H         4.497817        -2.011633         1.202270
 H         2.428817        -3.094562        -0.461083
 H         2.078959        -1.975485         0.961872
 H         2.242614        -1.353287        -1.948500
