19
Iteration:    44charge 0 multiplicity 1
 C         0.018887         0.504645        -0.296364
 C         1.362689        -0.056362        -0.150336
 O         1.857965         0.352261         1.095682
 C         2.614268         0.860804        -0.105728
 C         3.386908        -0.167005        -0.898825
 O         4.669011        -0.730101        -0.364997
 C         4.330433        -1.883603         0.378592
 C         2.977107        -2.349251        -0.207235
 C         2.171466        -1.141830        -0.753439
 H        -0.154185         1.227556         0.464784
 H        -0.134480         0.903645        -1.274051
 H        -0.720414        -0.259066        -0.166189
 H         2.579564         1.910055        -0.374068
 H         3.580645         0.313034        -1.864942
 H         5.143142        -2.637304         0.238919
 H         4.190697        -1.693925         1.443795
 H         3.292850        -2.718478        -1.116404
 H         2.562737        -3.072466         0.338221
 H         1.743405        -1.473513        -1.697965
