19
Iteration:   544charge 0 multiplicity 1
 C        -0.054341         0.368197        -0.192319
 C         1.409342        -0.040357        -0.141155
 O         2.094552         0.352052         1.027923
 C         2.542109         0.892540        -0.225644
 C         3.458781        -0.066688        -0.886858
 O         4.592422        -0.665561        -0.278352
 C         4.183870        -1.922595         0.406986
 C         2.904286        -2.401865        -0.213180
 C         2.249800        -1.133711        -0.835496
 H        -0.857383        -0.377097        -0.051080
 H        -0.215518         1.234673         0.466826
 H        -0.227258         0.718272        -1.258035
 H         2.600897         1.943137        -0.131859
 H         3.689717         0.351969        -1.877287
 H         5.098897        -2.629374         0.219603
 H         4.029815        -1.733401         1.428020
 H         3.139783        -3.087301        -1.070618
 H         2.231499        -2.771294         0.504398
 H         2.054647        -1.314693        -1.890257
