19
Iteration:  3399
 C        -0.047802         0.252126         0.113605
 C         1.444989         0.064401        -0.202388
 O         2.258101         0.605957         0.800581
 C         2.512916         1.002887        -0.600904
 C         3.450523        -0.198475        -0.997669
 O         4.495467        -0.710285        -0.101183
 C         4.125281        -1.929099         0.623736
 C         2.872501        -2.409747        -0.135691
 C         2.273354        -1.236765        -0.886641
 H        -0.496926         0.276313        -0.942254
 H        -0.508582        -0.724140         0.351147
 H        -0.316310         1.110767         0.763118
 H         2.551736         2.093327        -0.718222
 H         3.839828        -0.149617        -2.056950
 H         4.966584        -2.620433         0.451932
 H         3.927490        -1.722442         1.659079
 H         3.229759        -3.112190        -0.913784
 H         2.206550        -3.025393         0.396982
 H         1.827688        -1.321991        -1.875342
