19
Iteration:  2706charge 0 multiplicity 1
 C        -0.060540         0.353049        -0.358572
 C         1.429985         0.011543        -0.189688
 O         2.050993         0.241668         1.104957
 C         2.652827         0.851974        -0.130537
 C         3.485486        -0.065009        -0.942581
 O         4.635545        -0.723308        -0.462650
 C         4.254483        -1.877623         0.259394
 C         2.713353        -2.194140         0.205909
 C         2.212835        -1.169651        -0.855663
 H        -0.169554         0.599875        -1.482597
 H        -0.643093        -0.493068        -0.146687
 H        -0.283431         1.287700         0.174524
 H         2.851816         1.856976         0.228828
 H         3.639904         0.309909        -2.005212
 H         4.761260        -2.734601        -0.224930
 H         4.578630        -1.888317         1.366351
 H         2.670771        -3.271480        -0.029746
 H         2.235770        -1.863385         1.193770
 H         1.974503        -1.357384        -1.936714
