19
Iteration:  1331
 C        -0.068680         0.368439        -0.204875
 C         1.383837         0.036119        -0.100944
 O         2.058970         0.618078         1.003089
 C         2.522070         0.985666        -0.293645
 C         3.435769        -0.182397        -0.827685
 O         4.440193        -0.634984         0.168012
 C         4.460316        -2.035686         0.006368
 C         2.933155        -2.556060        -0.335182
 C         2.218442        -1.187553        -0.800870
 H        -0.681431        -0.414124         0.258731
 H        -0.232683         1.253681         0.316359
 H        -0.530932         0.555775        -1.178205
 H         2.600834         2.060121        -0.425299
 H         3.995749        -0.034676        -1.740750
 H         5.258572        -2.282005        -0.734902
 H         4.805446        -2.548767         1.018838
 H         2.809796        -3.374290        -1.078624
 H         2.533059        -3.095349         0.520111
 H         1.691178        -1.312059        -1.717010
