19
Iteration:  2264charge 0 multiplicity 1
 C        -0.100559         0.272491        -0.118963
 C         1.422554         0.048949        -0.158209
 O         2.117143         0.449988         1.040154
 C         2.538047         1.046881        -0.267772
 C         3.433924        -0.167269        -0.915088
 O         4.596146        -0.684833        -0.129128
 C         4.232813        -1.993847         0.415818
 C         2.897897        -2.391059        -0.367385
 C         2.225124        -1.130647        -0.919665
 H        -0.563934        -0.682983        -0.443936
 H        -0.438700         0.702289         0.911910
 H        -0.454441         1.147985        -0.733201
 H         2.677643         2.143784        -0.292198
 H         3.909063         0.066511        -1.885397
 H         4.921341        -2.756074         0.207352
 H         4.331844        -1.909178         1.570816
 H         3.230320        -3.084726        -1.219070
 H         2.253842        -2.947269         0.421837
 H         1.785279        -1.474704        -1.858491
