19
Iteration:  4585charge 0 multiplicity 1
 C        -0.069570         0.335148        -0.411576
 C         1.407436        -0.011327        -0.194380
 O         2.218966         0.367154         0.980591
 C         2.488752         0.901037        -0.365188
 C         3.383670        -0.259961        -0.935890
 O         4.570857        -0.568042        -0.203264
 C         4.335836        -1.957626         0.230980
 C         2.838069        -2.099952         0.263383
 C         2.188639        -1.298693        -0.701918
 H        -0.233378         0.374650        -1.466582
 H        -0.776071        -0.435266        -0.068760
 H        -0.377529         1.279101        -0.123804
 H         2.504740         1.972711        -0.543626
 H         3.633871        -0.084920        -2.053021
 H         4.793382        -2.765988        -0.408098
 H         4.802195        -1.962793         1.189510
 H         2.718618        -3.221513         0.136093
 H         2.445487        -1.832422         1.228249
 H         1.843235        -1.740895        -1.669996
