19
Iteration:  1054charge 0 multiplicity 1
 C        -0.033772        -0.022916        -0.059068
 C         1.486931         0.052987        -0.143379
 O         2.287397         0.494843         0.979813
 C         2.618411         1.061248        -0.293092
 C         3.526408        -0.065500        -0.973390
 O         4.456346        -0.634352        -0.072215
 C         4.037382        -2.064240         0.348655
 C         2.738924        -2.306046        -0.198866
 C         2.286689        -1.043561        -0.979277
 H        -0.430487        -0.700845         0.702667
 H        -0.413076         1.030544         0.079173
 H        -0.462947        -0.323418        -1.032444
 H         2.727191         2.144642        -0.293089
 H         3.963066         0.182811        -1.961936
 H         4.837278        -2.729920        -0.110577
 H         4.061006        -2.076862         1.486713
 H         2.784532        -3.121609        -0.979720
 H         1.982171        -2.642873         0.518777
 H         1.986966        -1.193965        -2.066935
