19
Iteration:  2793
 C        -0.029374         0.144837        -0.106445
 C         1.476027         0.005923        -0.133325
 O         2.216426         0.546317         0.987463
 C         2.616520         1.009543        -0.319321
 C         3.423963        -0.124451        -0.982900
 O         4.583757        -0.847642        -0.352725
 C         4.080987        -1.881400         0.532195
 C         2.767079        -2.317392        -0.152036
 C         2.325433        -1.104604        -0.863170
 H        -0.346359         1.132053        -0.560419
 H        -0.564858        -0.475577        -0.745136
 H        -0.478750         0.047617         0.883789
 H         2.437175         2.046248        -0.430371
 H         3.786018         0.194026        -1.996354
 H         4.935892        -2.561930         0.728323
 H         3.751031        -1.507422         1.559154
 H         2.875111        -3.176469        -0.783378
 H         1.959327        -2.659979         0.589133
 H         1.789262        -1.337192        -1.828939
