19
Iteration:  3618charge 0 multiplicity 1
 C        -0.097193         0.157612        -0.275682
 C         1.367250         0.124085        -0.427745
 O         1.957411         0.473593         0.933078
 C         2.606507         0.963511        -0.254917
 C         3.524886        -0.143731        -0.852915
 O         4.579824        -0.657551        -0.132751
 C         4.304575        -2.142362        -0.004841
 C         2.816991        -2.087882         0.356394
 C         2.350423        -1.218182        -0.735928
 H        -0.742649         0.278928        -1.162955
 H        -0.225767        -0.746894         0.238775
 H        -0.393930         0.918633         0.437098
 H         2.776477         2.022100        -0.524123
 H         3.772338         0.046343        -1.928134
 H         4.446244        -2.731094        -0.949387
 H         4.916692        -2.648098         0.742505
 H         2.330485        -3.060745         0.398505
 H         2.648090        -1.627338         1.311516
 H         2.253927        -1.667285        -1.743208
