19
Iteration:  1542
 C        -0.129816         0.049445        -0.173219
 C         1.460029         0.158594        -0.354529
 O         2.047336         0.431356         1.031578
 C         2.680970         1.045932        -0.198330
 C         3.508454        -0.090536        -0.836072
 O         4.529167        -0.690513        -0.035883
 C         4.262113        -2.079774         0.082739
 C         2.734190        -2.289463        -0.045055
 C         2.310341        -1.040711        -0.922967
 H        -0.220019        -0.716979         0.559066
 H        -0.499020         1.051416         0.118041
 H        -0.497302        -0.207274        -1.130443
 H         2.851992         2.131033        -0.312430
 H         3.994802         0.246776        -1.770248
 H         4.773797        -2.640318        -0.662882
 H         4.793514        -2.325362         1.080423
 H         2.200190        -3.209923        -0.219173
 H         2.278768        -2.060727         0.971704
 H         2.043812        -1.487221        -1.914136
