19
Iteration:   349
 C        -0.203244         0.612408        -0.221600
 C         1.345415         0.060900        -0.191936
 O         1.782826         0.366649         1.148295
 C         2.518097         0.858430        -0.097327
 C         3.528817        -0.160516        -0.885056
 O         4.741702        -0.798848        -0.470004
 C         4.351577        -1.913312         0.406684
 C         3.016360        -2.443963        -0.133462
 C         2.360929        -1.193171        -0.938666
 H        -0.395408         1.211899         0.781059
 H        -0.327820         1.328397        -1.065938
 H        -1.025952        -0.246734        -0.349338
 H         2.517724         1.955462        -0.187704
 H         3.901689         0.283446        -1.824399
 H         5.215012        -2.618079         0.474224
 H         4.176192        -1.661051         1.426093
 H         3.200848        -3.378595        -0.927714
 H         2.311360        -2.677717         0.631076
 H         1.879564        -1.470682        -1.799618
