19
Iteration:   894
 C        -0.099262         0.270103        -0.309473
 C         1.409209         0.055438        -0.257494
 O         1.982326         0.198451         1.030567
 C         2.689005         0.926677         0.072204
 C         3.516928        -0.072353        -0.839813
 O         4.623014        -0.873379        -0.610727
 C         4.293451        -1.778565         0.394135
 C         2.750202        -2.176900         0.068225
 C         2.267043        -1.092886        -0.932115
 H        -0.535184        -0.711840        -0.122340
 H        -0.352448         0.979225         0.544371
 H        -0.571878         0.674696        -1.201835
 H         2.881928         1.983317         0.293005
 H         3.750820         0.450822        -1.789005
 H         5.052159        -2.659969         0.397732
 H         4.365542        -1.302767         1.383323
 H         2.615167        -3.226605        -0.328665
 H         2.151528        -1.958914         0.955012
 H         1.901661        -1.351465        -1.934206
