19
Iteration:  3388
 C        -0.002939         0.300716         0.039987
 C         1.392542         0.021127        -0.166925
 O         2.277584         0.560311         0.797747
 C         2.527686         0.926593        -0.564050
 C         3.420218        -0.253748        -0.966331
 O         4.418511        -0.629082        -0.040442
 C         4.137967        -1.901118         0.526119
 C         2.904781        -2.394758        -0.170911
 C         2.266839        -1.212362        -0.896935
 H        -0.612854         0.509088        -0.914117
 H        -0.324405        -0.494325         0.766964
 H        -0.151983         1.202539         0.685717
 H         2.667976         1.930727        -0.956560
 H         3.977298        -0.116917        -1.945608
 H         4.930238        -2.663786         0.436183
 H         4.058524        -1.775011         1.587999
 H         3.250419        -3.161503        -0.877006
 H         2.227165        -2.754501         0.538168
 H         1.935056        -1.734929        -1.777577
