19
Iteration:  4320charge 0 multiplicity 1
 C        -0.005627         0.294314        -0.158579
 C         1.456820        -0.003118        -0.257381
 O         2.162764         0.327163         0.952126
 C         2.539372         0.899361        -0.329705
 C         3.435599        -0.256843        -1.081656
 O         4.586584        -0.733658        -0.394971
 C         4.098046        -1.634950         0.698861
 C         2.853312        -2.237767         0.066673
 C         2.295111        -1.263336        -0.944289
 H        -0.587070         0.656172        -1.025621
 H        -0.559644        -0.663720         0.311329
 H        -0.014117         1.124627         0.640888
 H         2.559011         1.997729        -0.421946
 H         3.723508         0.109517        -2.090377
 H         5.015765        -2.236014         0.916429
 H         3.755616        -1.054299         1.608090
 H         3.034216        -3.148696        -0.469168
 H         2.075215        -2.603445         0.825264
 H         1.805277        -1.588079        -1.873105
