19
Iteration:  2632charge 0 multiplicity 1
 C        -0.006539         0.281468        -0.280679
 C         1.428625         0.060458        -0.067185
 O         2.175538         0.439388         1.053775
 C         2.593750         0.978830        -0.202823
 C         3.410550        -0.148422        -0.899324
 O         4.571393        -0.725652        -0.267511
 C         4.206771        -1.940704         0.309972
 C         2.786762        -2.403662        -0.204552
 C         2.224256        -1.063479        -0.833062
 H        -0.327555        -0.684454        -0.784529
 H        -0.478294         0.069711         0.731085
 H        -0.263535         1.221364        -0.812230
 H         2.779683         2.028437        -0.130143
 H         3.825451         0.277612        -1.809861
 H         4.903138        -2.725489         0.156271
 H         4.177576        -1.867453         1.414210
 H         2.805150        -3.232454        -0.919398
 H         2.119379        -2.701913         0.692528
 H         1.644284        -1.304775        -1.708368
