19
Iteration:  2219charge 0 multiplicity 1
 C         0.064795        -0.037527        -0.183663
 C         1.526540         0.021656        -0.129290
 O         2.232165         0.301860         1.110404
 C         2.626485         1.010482        -0.067024
 C         3.536046        -0.066684        -1.010163
 O         4.590498        -0.804611        -0.375023
 C         3.917896        -1.714534         0.507910
 C         2.727893        -2.255088        -0.191771
 C         2.212670        -1.002270        -1.062685
 H        -0.260330        -1.094085        -0.152519
 H        -0.459801         0.714322         0.451345
 H        -0.246397         0.400066        -1.190757
 H         2.712143         2.048960         0.064989
 H         3.912582         0.347058        -1.976993
 H         4.670707        -2.281271         0.950789
 H         3.601265        -1.133760         1.405201
 H         2.861989        -3.087077        -0.910416
 H         1.860461        -2.616740         0.527711
 H         1.710032        -1.062982        -2.020260
