19
Iteration:  4868
 C        -0.017080         0.309953        -0.540018
 C         1.390582         0.005062        -0.253407
 O         1.996500         0.565817         0.996812
 C         2.565815         0.917534        -0.220568
 C         3.403955        -0.279685        -0.936777
 O         4.558673        -0.632684        -0.279458
 C         4.359053        -2.009874         0.154565
 C         2.925658        -2.218376         0.375292
 C         2.244063        -1.269014        -0.638327
 H        -0.535381        -0.305382        -1.324846
 H        -0.467605        -0.283259         0.429369
 H        -0.305448         1.379737        -0.543935
 H         2.519578         1.926106        -0.554958
 H         3.492737        -0.036388        -1.997495
 H         4.603831        -2.707448        -0.667875
 H         5.038404        -2.067089         0.994220
 H         2.672400        -3.334242         0.472863
 H         2.699414        -1.657092         1.291402
 H         1.795845        -1.636169        -1.586358
