19
Iteration:   717
 C         0.082149         0.088168        -0.197999
 C         1.550127        -0.037393        -0.059242
 O         2.328998         0.392152         1.029308
 C         2.645608         0.979763        -0.299984
 C         3.414241        -0.101133        -1.026788
 O         4.385470        -0.629618        -0.211094
 C         3.988040        -1.819729         0.520230
 C         2.766169        -2.380663        -0.189629
 C         2.241767        -1.053977        -0.937837
 H        -0.457617        -0.777199         0.032948
 H        -0.259453         0.793738         0.530103
 H        -0.182500         0.480589        -1.173172
 H         2.690877         2.063773        -0.427800
 H         3.890275         0.134953        -2.000423
 H         4.791902        -2.537916         0.447338
 H         3.807336        -1.560687         1.591613
 H         3.111097        -3.165595        -0.933197
 H         2.057437        -2.910304         0.377980
 H         1.727777        -1.149398        -1.960953
