19
Iteration:  1939
 C        -0.086179         0.332967        -0.099461
 C         1.343420        -0.071768        -0.157819
 O         2.115337         0.270776         1.057802
 C         2.460148         0.914474        -0.153672
 C         3.581587        -0.092441        -0.992566
 O         4.642109        -0.738709        -0.303076
 C         4.101327        -1.827599         0.511534
 C         2.874972        -2.263788        -0.284886
 C         2.335951        -1.096604        -1.011709
 H        -0.650246        -0.362598         0.509165
 H        -0.074528         1.318440         0.395115
 H        -0.493819         0.524698        -1.128724
 H         2.442903         1.987839        -0.079697
 H         4.061073         0.446018        -1.851097
 H         4.884308        -2.659444         0.722413
 H         3.835173        -1.395660         1.535667
 H         3.243980        -3.061813        -1.064246
 H         2.269139        -2.871881         0.424231
 H         1.893001        -1.519373        -2.002461
