19
Iteration:  1814charge 0 multiplicity 1
 C        -0.111642         0.476656        -0.353298
 C         1.376063        -0.081645        -0.156202
 O         2.158645         0.345724         1.058123
 C         2.463176         0.957004        -0.202741
 C         3.429494        -0.136435        -0.853210
 O         4.515363        -0.538228        -0.099810
 C         4.384422        -2.078949         0.114908
 C         2.878799        -2.420324        -0.048094
 C         2.284004        -1.147975        -0.812739
 H        -0.696654        -0.142147         0.412465
 H        -0.141820         1.596159        -0.120072
 H        -0.449352         0.214710        -1.382383
 H         2.330717         2.033858        -0.197996
 H         3.825572         0.211578        -1.811309
 H         5.020659        -2.474178        -0.643346
 H         4.732521        -2.326954         1.183204
 H         2.865770        -3.195589        -0.816352
 H         2.210472        -2.580805         0.832534
 H         1.928262        -1.406904        -1.764708
