19
Iteration:  4981charge 0 multiplicity 1
 C        -0.005414         0.148644        -0.228000
 C         1.509280        -0.059732        -0.244153
 O         2.212404         0.484620         0.938525
 C         2.553143         0.915791        -0.456674
 C         3.457381        -0.226508        -1.046005
 O         4.436613        -0.552232        -0.071358
 C         4.199719        -1.960439         0.312661
 C         2.768988        -2.178703         0.203286
 C         2.289815        -1.179151        -0.849450
 H        -0.556233         0.218336        -1.192437
 H        -0.530905        -0.681039         0.320349
 H        -0.165159         1.132456         0.296399
 H         2.622436         1.989416        -0.820185
 H         3.870070        -0.030101        -2.019551
 H         4.813697        -2.614130        -0.285095
 H         4.464547        -1.945012         1.344025
 H         2.527297        -3.182366        -0.020057
 H         2.248488        -1.903244         1.156330
 H         1.911206        -1.744989        -1.677196
