19
Iteration:  1397
 C        -0.102434         0.146061        -0.406801
 C         1.436617         0.016463        -0.281787
 O         1.977643         0.209364         1.051705
 C         2.711485         0.900184         0.055367
 C         3.511475        -0.041209        -0.782937
 O         4.645514        -0.671123        -0.262931
 C         4.218454        -1.994485        -0.017965
 C         2.671342        -2.050368         0.199129
 C         2.357465        -0.998192        -0.917437
 H        -0.399584        -0.450520         0.470599
 H        -0.513777         1.119620        -0.392096
 H        -0.301720        -0.375728        -1.299347
 H         3.066333         1.893840         0.277246
 H         3.629038         0.485964        -1.736943
 H         4.230271        -2.572496        -0.979028
 H         4.916421        -2.438653         0.841359
 H         2.171610        -3.036512        -0.109072
 H         2.329174        -1.906100         1.259061
 H         2.112901        -1.402758        -1.842585
