19
Iteration:  3529charge 0 multiplicity 1
 C        -0.087034         0.481797        -0.489917
 C         1.284996        -0.053954        -0.115313
 O         2.028530         0.434171         1.048433
 C         2.500334         0.904222        -0.202159
 C         3.413754        -0.183095        -1.016045
 O         4.637194        -0.658654        -0.422243
 C         4.433231        -1.916482         0.297638
 C         2.920622        -2.345324         0.256747
 C         2.208958        -1.318733        -0.682757
 H        -0.387410         0.344637        -1.526528
 H        -0.851150         0.143090         0.193708
 H        -0.066364         1.553894        -0.317060
 H         2.555824         1.994457        -0.439476
 H         3.561479        -0.003921        -2.109531
 H         5.222138        -2.587690        -0.113025
 H         4.778423        -1.692228         1.329048
 H         2.674374        -3.396876         0.016524
 H         2.683805        -2.115391         1.254370
 H         1.937515        -1.803802        -1.608773
