19
Iteration:  3924
 C        -0.117445         0.135231        -0.354946
 C         1.391925         0.028132        -0.320042
 O         1.907295         0.593289         0.939839
 C         2.574983         0.983254        -0.274094
 C         3.507265        -0.133023        -0.758792
 O         4.672049        -0.726535        -0.214232
 C         4.369538        -2.114934         0.019905
 C         2.814081        -2.203961         0.311160
 C         2.300221        -1.113544        -0.687322
 H        -0.611982        -0.085407        -1.346381
 H        -0.377615        -0.651438         0.339447
 H        -0.521435         1.130374        -0.050819
 H         2.700310         2.080961        -0.581196
 H         3.661718         0.095886        -1.831068
 H         4.697800        -2.563836        -0.932884
 H         4.906138        -2.435026         0.918394
 H         2.228292        -3.135525         0.167990
 H         2.725554        -1.930507         1.370504
 H         2.096424        -1.669197        -1.614314
