19
Iteration:  3983
 C        -0.093727         0.232271        -0.396853
 C         1.404058        -0.048020        -0.172272
 O         2.270171         0.432537         0.969802
 C         2.528491         0.963953        -0.317725
 C         3.440055        -0.246659        -1.027235
 O         4.530450        -0.529329        -0.123856
 C         4.296420        -1.878231         0.310911
 C         2.772870        -2.268681         0.189893
 C         2.192495        -1.200726        -0.800022
 H        -0.252226         0.344604        -1.442049
 H        -0.737094        -0.624511        -0.050637
 H        -0.476632         1.027823         0.225131
 H         2.773492         1.990575        -0.526528
 H         3.779883         0.007260        -2.034531
 H         4.757874        -2.498441        -0.409133
 H         4.848249        -2.183740         1.219981
 H         2.803204        -3.262161        -0.297540
 H         2.331504        -2.383354         1.214511
 H         1.738236        -1.835710        -1.592183
