19
Iteration:  4366
 C         0.008828         0.048146        -0.305901
 C         1.479286         0.037329        -0.220814
 O         2.192014         0.572964         1.033948
 C         2.606146         1.016813        -0.255657
 C         3.458436        -0.203302        -1.054748
 O         4.531161        -0.784829        -0.431574
 C         4.119232        -1.770947         0.550619
 C         2.848788        -2.319198         0.112302
 C         2.185603        -1.113389        -0.790887
 H        -0.331860         0.300859        -1.351451
 H        -0.392429        -1.070714        -0.116335
 H        -0.496607         0.829200         0.342244
 H         2.621691         2.096422        -0.557309
 H         3.605851        -0.107249        -2.129453
 H         4.889547        -2.606528         0.541240
 H         4.163468        -1.261819         1.551041
 H         2.793386        -3.273332        -0.383872
 H         2.223833        -2.537528         0.990057
 H         1.744961        -1.647052        -1.670612
