19
Iteration:  2173charge 0 multiplicity 1
 C        -0.064596         0.233675        -0.157420
 C         1.411382         0.027140        -0.256360
 O         2.073273         0.205153         0.996627
 C         2.597805         0.889476        -0.113408
 C         3.551688        -0.025290        -0.952637
 O         4.614983        -0.683191        -0.260731
 C         4.191560        -1.850333         0.378121
 C         2.756227        -2.266707        -0.145755
 C         2.318703        -1.074386        -0.947476
 H        -0.394862        -0.369032         0.715656
 H        -0.235785         1.270159        -0.041311
 H        -0.701072        -0.072196        -1.021444
 H         2.451655         1.982461        -0.079153
 H         3.946656         0.494708        -1.859544
 H         4.986885        -2.615606         0.247628
 H         4.111069        -1.762915         1.459950
 H         2.493652        -3.237731        -0.558793
 H         2.199081        -2.278433         0.868125
 H         1.846188        -1.301560        -1.896087
