19
Iteration:   320
 C         0.003890         0.371622        -0.394830
 C         1.456765         0.001589        -0.138022
 O         2.019603         0.213080         1.101463
 C         2.639361         0.874343        -0.037265
 C         3.419123        -0.102085        -0.823186
 O         4.567417        -0.761033        -0.467308
 C         4.212018        -1.795815         0.382533
 C         2.861749        -2.286979        -0.134603
 C         2.254339        -1.081624        -0.800635
 H        -0.240823         1.247505         0.155474
 H        -0.165116         0.603491        -1.429969
 H        -0.665696        -0.362095        -0.143877
 H         2.704689         1.939465         0.037545
 H         3.595658         0.274405        -1.841257
 H         4.960558        -2.540570         0.302277
 H         4.060534        -1.501587         1.467316
 H         3.010755        -3.017577        -0.850493
 H         2.211374        -2.710959         0.627157
 H         1.831849        -1.278184        -1.840419
