19
Iteration:  1202
 C        -0.076320         0.375089        -0.488161
 C         1.369162         0.058511        -0.152020
 O         1.957902         0.258096         1.170988
 C         2.561799         0.921489         0.058762
 C         3.394866        -0.052147        -0.823419
 O         4.688691        -0.730322        -0.479811
 C         4.377208        -1.971658         0.251547
 C         2.859041        -2.272874        -0.014384
 C         2.273793        -1.154099        -0.877284
 H        -0.772650        -0.251103         0.207803
 H        -0.397456         1.388547        -0.298155
 H        -0.237035         0.090503        -1.562738
 H         2.595348         2.021255         0.142848
 H         3.522263         0.438974        -1.802101
 H         5.065967        -2.801614         0.023216
 H         4.535759        -1.753458         1.361293
 H         2.686665        -3.214875        -0.408222
 H         2.336688        -2.082485         0.963357
 H         2.067616        -1.469444        -1.869561
