19
Iteration:  2456charge 0 multiplicity 1
 C        -0.110348         0.566269        -0.315797
 C         1.346683        -0.045111        -0.290922
 O         2.065133         0.296930         1.024049
 C         2.566062         0.806482        -0.200497
 C         3.421848        -0.180702        -0.984184
 O         4.584615        -0.608036        -0.278771
 C         4.409152        -1.962893         0.304878
 C         2.804077        -2.238724         0.164807
 C         2.268845        -1.271683        -0.804591
 H         0.207222         1.425951        -1.026129
 H        -0.930944        -0.063152        -0.698966
 H        -0.357324         1.058195         0.708685
 H         2.655901         1.918268        -0.264685
 H         3.598302         0.153237        -2.007207
 H         4.847515        -2.680395        -0.411382
 H         4.798622        -2.036616         1.359337
 H         2.696389        -3.270187        -0.229020
 H         2.437572        -2.222983         1.243166
 H         2.034113        -1.724809        -1.805527
