19
Iteration:  4285charge 0 multiplicity 1
 C        -0.036200         0.313141        -0.268972
 C         1.409888        -0.052930        -0.180140
 O         2.289501         0.272304         0.969171
 C         2.529845         0.884704        -0.380218
 C         3.414517        -0.222782        -1.085078
 O         4.595587        -0.580094        -0.259382
 C         4.161881        -1.714610         0.583858
 C         2.814024        -2.267537         0.062170
 C         2.204786        -1.202494        -0.889066
 H        -0.594608         0.099496        -1.220433
 H        -0.514136        -0.243144         0.627910
 H        -0.139502         1.402931         0.055420
 H         2.579329         1.971977        -0.462917
 H         3.694759        -0.157285        -2.177051
 H         4.995891        -2.490284         0.634354
 H         4.007999        -1.351979         1.639668
 H         2.867831        -3.178820        -0.590837
 H         2.059021        -2.413694         0.911599
 H         1.768676        -1.895221        -1.614990
