19
Iteration:  2478charge 0 multiplicity 1
 C        -0.084455         0.356300        -0.249504
 C         1.406262         0.091571        -0.243832
 O         2.099947         0.342473         0.965860
 C         2.591720         0.950356        -0.299077
 C         3.468594        -0.209743        -0.917929
 O         4.600982        -0.687304        -0.279071
 C         4.259002        -1.987719         0.348498
 C         2.815243        -2.308145         0.101178
 C         2.253759        -1.105094        -0.864130
 H        -0.453174         1.129215        -1.060881
 H        -0.542005        -0.640373        -0.398451
 H        -0.382953         0.648564         0.842114
 H         2.644771         2.073248        -0.258540
 H         3.756903         0.014307        -1.945887
 H         4.996987        -2.717329        -0.027661
 H         4.307669        -1.842448         1.463319
 H         2.722506        -3.355503        -0.236765
 H         2.390575        -2.138911         1.166152
 H         1.688304        -1.435062        -1.764678
