19
Iteration:  3629charge 0 multiplicity 1
 C        -0.121777         0.186299        -0.244455
 C         1.444414         0.022841        -0.406279
 O         2.034037         0.522297         0.894951
 C         2.598999         0.950537        -0.291886
 C         3.457294        -0.158358        -0.860191
 O         4.516924        -0.697789        -0.081451
 C         4.356236        -2.095269         0.028680
 C         2.786520        -2.202134         0.388114
 C         2.345987        -1.107700        -0.832894
 H        -0.752898         0.130234        -1.161884
 H        -0.507836        -0.616271         0.302539
 H        -0.236753         1.109819         0.307452
 H         2.593742         2.029692        -0.213784
 H         3.785524         0.215252        -1.854527
 H         4.510478        -2.606621        -0.965864
 H         5.179441        -2.269429         0.721855
 H         2.504937        -3.209247         0.179320
 H         2.470963        -1.766668         1.314907
 H         2.085130        -1.689353        -1.741148
