19
Iteration:  4549charge 0 multiplicity 1
 C        -0.099000         0.260708        -0.366983
 C         1.427039        -0.027025        -0.333983
 O         2.002800         0.570607         0.920565
 C         2.572999         0.958095        -0.359923
 C         3.423537        -0.228041        -0.868153
 O         4.580932        -0.677564        -0.159612
 C         4.339976        -2.057998         0.039146
 C         2.875492        -2.121933         0.410764
 C         2.295928        -1.242475        -0.651266
 H        -0.452966         0.573344        -1.339974
 H        -0.530127        -0.701995        -0.178296
 H        -0.434815         0.828605         0.495939
 H         2.544780         2.037832        -0.496191
 H         3.550543         0.037962        -1.967601
 H         4.564075        -2.479063        -0.967643
 H         4.904711        -2.623433         0.833640
 H         2.603698        -3.197110         0.318959
 H         2.609626        -1.721611         1.488047
 H         2.130797        -1.860988        -1.518637
