19
Iteration:   484
 C        -0.063200         0.175539        -0.103248
 C         1.438671         0.005333        -0.131768
 O         2.240594         0.380813         1.056531
 C         2.620156         0.974108        -0.296343
 C         3.503667        -0.096769        -0.959067
 O         4.588683        -0.687720        -0.209991
 C         3.975995        -1.838996         0.534681
 C         2.847304        -2.387619        -0.365952
 C         2.274949        -1.093700        -0.950664
 H        -0.538895        -0.784031         0.067798
 H        -0.331947         0.910162         0.668379
 H        -0.348631         0.598052        -1.015421
 H         2.368783         2.048187        -0.256435
 H         3.900854         0.106625        -1.970549
 H         4.726627        -2.503880         0.698855
 H         3.503759        -1.492684         1.506958
 H         3.176147        -3.155431        -1.027393
 H         2.130889        -2.950460         0.322053
 H         1.846255        -1.051386        -1.992905
