19
Iteration:  4333
 C        -0.108279         0.197298        -0.150090
 C         1.402803        -0.055177        -0.253828
 O         2.139438         0.422298         0.955372
 C         2.639770         0.893997        -0.324039
 C         3.551535        -0.238700        -1.063912
 O         4.669173        -0.797883        -0.421170
 C         4.087620        -1.617266         0.620502
 C         2.827015        -2.262969         0.049151
 C         2.206829        -1.123528        -0.834899
 H        -0.423988         0.570724        -1.137168
 H        -0.778618        -0.717455         0.125845
 H        -0.312656         0.939243         0.670321
 H         2.575315         2.002765        -0.377438
 H         3.830935        -0.007206        -2.088011
 H         4.688667        -2.491526         0.932861
 H         3.886671        -0.929119         1.452877
 H         3.167686        -3.087684        -0.530341
 H         2.214299        -2.530541         0.906975
 H         1.797363        -1.598338        -1.753227
