19
Iteration:   668charge 0 multiplicity 1
 C        -0.114064         0.536479        -0.091994
 C         1.329648         0.022175        -0.240847
 O         1.943693         0.393307         1.003020
 C         2.558206         0.927640        -0.183027
 C         3.482967        -0.163732        -0.935646
 O         4.574353        -0.771259        -0.316584
 C         4.266951        -1.867210         0.514419
 C         3.028540        -2.449475        -0.285826
 C         2.346283        -1.211995        -0.878665
 H        -0.605788         0.048927         0.882587
 H        -0.182325         1.650286         0.218649
 H        -0.792939         0.361262        -0.984090
 H         2.666587         2.036192        -0.308087
 H         3.852222         0.123605        -1.932614
 H         5.168594        -2.565943         0.574744
 H         3.934576        -1.581693         1.585865
 H         3.344140        -3.119106        -1.070647
 H         2.363590        -3.165507         0.347792
 H         2.038872        -1.602314        -1.806448
