19
Iteration:  1546charge 0 multiplicity 1
 C        -0.120970         0.015440        -0.193756
 C         1.442282         0.186151        -0.338470
 O         2.077092         0.449275         1.053575
 C         2.680834         1.065033        -0.186770
 C         3.485292        -0.108835        -0.830473
 O         4.534150        -0.696173        -0.048356
 C         4.254976        -2.074090         0.100332
 C         2.734609        -2.290482        -0.029883
 C         2.317588        -1.011857        -0.948318
 H        -0.332005        -0.752940         0.644691
 H        -0.596175         0.965552         0.085457
 H        -0.464739        -0.423274        -1.252915
 H         2.970606         2.093534        -0.339221
 H         3.966810         0.117925        -1.797459
 H         4.815532        -2.749683        -0.667241
 H         4.705241        -2.412471         1.001632
 H         2.227337        -3.249353        -0.231118
 H         2.246814        -1.987855         0.882364
 H         2.007090        -1.346771        -1.996913
