19
Iteration:  4778charge 0 multiplicity 1
 C        -0.075280         0.145995        -0.425141
 C         1.439735         0.012454        -0.136815
 O         2.199269         0.637297         0.982550
 C         2.469580         0.915301        -0.389850
 C         3.438168        -0.204626        -0.997611
 O         4.605370        -0.652895        -0.320973
 C         4.319426        -1.966474         0.367064
 C         2.728246        -2.258767         0.215731
 C         2.247140        -1.189483        -0.623320
 H        -0.164083         0.179012        -1.590029
 H        -0.525376        -0.890784        -0.040737
 H        -0.629397         0.961214         0.115337
 H         2.605394         2.015669        -0.583074
 H         3.866425         0.022725        -1.966813
 H         4.803121        -2.821421        -0.164972
 H         4.595030        -1.997769         1.446227
 H         2.566069        -3.218816        -0.334712
 H         2.328695        -2.288207         1.243510
 H         1.742793        -1.482357        -1.552763
