19
Iteration:  3030
 C        -0.060652         0.387732        -0.265449
 C         1.414577         0.054444        -0.146126
 O         2.218879         0.431823         1.053948
 C         2.552233         0.885922        -0.250338
 C         3.421797        -0.194585        -1.045022
 O         4.566519        -0.839074        -0.502625
 C         4.210924        -1.736072         0.544020
 C         2.817517        -2.356231         0.042228
 C         2.232467        -1.202007        -0.750061
 H        -0.597584        -0.464072        -0.743236
 H        -0.468280         0.599114         0.663539
 H        -0.237124         1.104823        -1.071069
 H         2.681144         1.947621        -0.394935
 H         3.673123        -0.015612        -2.090405
 H         5.019343        -2.481522         0.624690
 H         4.088378        -1.056477         1.352258
 H         2.987233        -3.318543        -0.573115
 H         2.182703        -2.665806         0.902698
 H         1.904816        -1.538754        -1.768673
