19
Iteration:  2186
 C        -0.059416         0.112562        -0.157257
 C         1.444232         0.036756        -0.274897
 O         2.193649         0.135970         0.974427
 C         2.634467         0.988345        -0.096885
 C         3.502674        -0.052336        -0.916578
 O         4.682961        -0.656479        -0.309302
 C         4.092567        -1.833091         0.446628
 C         2.645933        -2.241235        -0.070465
 C         2.238242        -0.997695        -1.017363
 H        -0.444836        -0.581407         0.613218
 H        -0.487701         1.073062         0.143332
 H        -0.402229        -0.198251        -1.189326
 H         2.877110         1.988636         0.144943
 H         3.800031         0.270929        -1.937598
 H         4.783279        -2.594758         0.390074
 H         3.954215        -1.366123         1.433225
 H         2.798604        -3.107767        -0.725279
 H         1.939583        -2.364123         0.828579
 H         2.042279        -1.286288        -2.031124
