19
Iteration:  1712charge 0 multiplicity 1
 C        -0.020039         0.061703        -0.482621
 C         1.462559         0.076301        -0.165499
 O         1.933914         0.461318         1.124548
 C         2.658760         1.040070        -0.002576
 C         3.491450        -0.012086        -0.779560
 O         4.607815        -0.720216        -0.262409
 C         4.269138        -2.142984        -0.087818
 C         2.758995        -2.216395         0.179373
 C         2.255587        -1.076803        -0.820522
 H        -0.391161        -1.011671        -0.496146
 H        -0.557146         0.652000         0.334060
 H        -0.140893         0.453041        -1.546543
 H         2.816371         2.142019        -0.115402
 H         3.745538         0.330911        -1.791435
 H         4.705797        -2.727559        -0.893352
 H         4.796734        -2.399232         0.763940
 H         2.210554        -3.078211        -0.156913
 H         2.449474        -1.997827         1.180147
 H         2.039428        -1.303980        -1.872814
