19
Iteration:     2
 C        -0.030573         0.255013        -0.229816
 C         1.451561         0.003300        -0.176930
 O         2.140911         0.240413         1.048449
 C         2.619552         0.913166        -0.114520
 C         3.478372        -0.065775        -0.922521
 O         4.578413        -0.708197        -0.308695
 C         4.108063        -1.816266         0.458268
 C         2.801003        -2.305582        -0.186508
 C         2.277865        -1.064453        -0.957366
 H        -0.293441         1.203840         0.303640
 H        -0.370170         0.348563        -1.282051
 H        -0.590511        -0.586077         0.229454
 H         2.649271         2.001400        -0.063683
 H         3.805326         0.334168        -1.879048
 H         4.883330        -2.561266         0.467713
 H         3.935349        -1.495474         1.503262
 H         2.940918        -3.140821        -0.921480
 H         2.047716        -2.686102         0.584101
 H         1.880849        -1.302290        -1.949127
