19
Iteration:  4799
 C        -0.015524         0.193679        -0.433666
 C         1.450255         0.001479        -0.158874
 O         2.047780         0.502487         0.954541
 C         2.647645         0.961152        -0.316894
 C         3.366275        -0.208741        -0.966450
 O         4.543858        -0.672350        -0.353893
 C         4.316299        -1.943925         0.309169
 C         2.828929        -2.220395         0.354044
 C         2.221659        -1.188469        -0.716457
 H        -0.193806        -0.118111        -1.529256
 H        -0.567250        -0.556513         0.239811
 H        -0.285501         1.252055        -0.205715
 H         2.714513         2.095288        -0.430398
 H         3.442954        -0.033524        -2.065108
 H         4.915476        -2.524885        -0.359838
 H         4.609458        -2.061082         1.392150
 H         2.687851        -3.275155         0.113699
 H         2.407930        -1.920130         1.324924
 H         1.876656        -1.602771        -1.665781
