19
Iteration:  1015
 C        -0.027471         0.225550         0.054739
 C         1.476934        -0.016361        -0.014533
 O         2.194776         0.679924         0.913560
 C         2.586760         1.013067        -0.443314
 C         3.462287        -0.194691        -0.950461
 O         4.319374        -0.648936         0.169917
 C         4.181254        -2.086851         0.214736
 C         2.912339        -2.467860        -0.414806
 C         2.310065        -1.092106        -0.906773
 H        -0.642879        -0.134237         0.897341
 H        -0.251862         1.321248         0.043616
 H        -0.410453        -0.120448        -0.909088
 H         2.490979         2.026732        -0.788480
 H         3.974287        -0.096067        -1.920752
 H         5.043716        -2.605093        -0.094302
 H         4.189359        -2.380104         1.255961
 H         3.289950        -2.878780        -1.356255
 H         2.389151        -3.255580         0.148597
 H         1.733774        -1.260251        -1.795471
