19
Iteration:   774
 C         0.034547         0.013030         0.006720
 C         1.437379         0.099236        -0.383491
 O         2.038631         0.384353         0.947678
 C         2.630825         0.990977        -0.135885
 C         3.550809        -0.064122        -0.895579
 O         4.631102        -0.810044        -0.349122
 C         4.079614        -1.877607         0.488131
 C         2.670937        -2.238481        -0.099405
 C         2.301664        -0.990020        -1.047802
 H         0.007741        -0.865688         0.556119
 H        -0.355293         0.901566         0.512665
 H        -0.502479        -0.263752        -0.856791
 H         2.820113         2.097301        -0.026759
 H         4.061890         0.398216        -1.771232
 H         4.873124        -2.704375         0.641205
 H         3.889056        -1.414272         1.422270
 H         2.758457        -3.206667        -0.682351
 H         2.004485        -2.302914         0.768833
 H         2.119533        -1.353794        -2.069675
