19
Iteration:  1398
 C        -0.104542         0.140657        -0.406365
 C         1.444869         0.012778        -0.284640
 O         1.962405         0.209105         1.050817
 C         2.726538         0.914807         0.058786
 C         3.517408        -0.035382        -0.772786
 O         4.653322        -0.672188        -0.274325
 C         4.218835        -1.992447        -0.021226
 C         2.660632        -2.045884         0.198845
 C         2.353361        -1.011469        -0.912714
 H        -0.405916        -0.481727         0.464188
 H        -0.538000         1.147855        -0.401013
 H        -0.340614        -0.361173        -1.301030
 H         3.100734         1.901307         0.315521
 H         3.612317         0.486655        -1.728134
 H         4.235413        -2.607733        -0.976874
 H         4.948739        -2.428821         0.825405
 H         2.186470        -3.004453        -0.071173
 H         2.292384        -1.931553         1.256824
 H         2.115792        -1.437584        -1.846507
