19
Iteration:  4463
 C        -0.132966         0.271136        -0.298618
 C         1.382674        -0.037856        -0.251450
 O         2.166956         0.463897         0.938831
 C         2.542675         0.836043        -0.369576
 C         3.426627        -0.218559        -0.983811
 O         4.460855        -0.591428        -0.148519
 C         4.420446        -2.022031         0.240617
 C         2.850012        -2.148160         0.310240
 C         2.298315        -1.146087        -0.799422
 H        -0.566573        -0.104031        -1.211226
 H        -0.777654        -0.128606         0.477825
 H        -0.187284         1.304735        -0.556167
 H         2.496302         1.917877        -0.565924
 H         3.865870         0.083428        -1.972727
 H         4.709863        -2.562328        -0.652396
 H         4.913783        -2.502296         1.089168
 H         2.653976        -3.218420         0.198804
 H         2.462366        -1.999147         1.364885
 H         1.794208        -1.489511        -1.712379
