19
Iteration:  2475
 C        -0.076985         0.416006        -0.264976
 C         1.387568         0.078794        -0.214707
 O         2.093548         0.325692         0.946481
 C         2.582380         0.944802        -0.292463
 C         3.450308        -0.208592        -0.895951
 O         4.609001        -0.693518        -0.269232
 C         4.301196        -1.975427         0.326576
 C         2.820985        -2.312935         0.134125
 C         2.233235        -1.127461        -0.892238
 H        -0.503704         1.144582        -1.029133
 H        -0.582998        -0.571795        -0.410935
 H        -0.378003         0.628832         0.788601
 H         2.634369         2.007185        -0.274277
 H         3.807966         0.050736        -1.919276
 H         5.044813        -2.671337         0.009585
 H         4.455861        -1.842677         1.401620
 H         2.757543        -3.408887        -0.244523
 H         2.338047        -2.083357         1.090408
 H         1.666305        -1.482165        -1.781741
