19
Iteration:  2740
 C        -0.003937         0.548829        -0.354523
 C         1.373641        -0.056230        -0.134912
 O         2.117289         0.383714         1.105504
 C         2.570264         0.874397        -0.243147
 C         3.364991        -0.144483        -0.976920
 O         4.510140        -0.676657        -0.340979
 C         4.343351        -1.918674         0.320112
 C         2.909533        -2.386383         0.055764
 C         2.186536        -1.237457        -0.767667
 H         0.042945         1.297890        -1.197705
 H        -0.851534        -0.084194        -0.693896
 H        -0.465798         1.014696         0.518170
 H         2.598578         1.930164        -0.208582
 H         3.652407         0.119645        -2.030018
 H         4.995958        -2.636915        -0.183261
 H         4.711461        -1.792607         1.411137
 H         3.113248        -3.327212        -0.486560
 H         2.233545        -2.818209         0.907899
 H         1.857314        -1.509869        -1.772457
