19
Iteration:  2949
 C         0.018552         0.331524        -0.389179
 C         1.450857        -0.025994        -0.133359
 O         2.151150         0.443011         1.116907
 C         2.541267         0.980722        -0.237320
 C         3.374669        -0.164489        -0.974235
 O         4.561160        -0.815413        -0.577524
 C         4.223061        -1.833982         0.469187
 C         2.815298        -2.322288         0.136323
 C         2.225879        -1.208267        -0.767371
 H        -0.643141        -0.474961        -0.296993
 H        -0.132739         1.042609         0.474995
 H        -0.128512         0.982120        -1.222761
 H         2.603097         2.080256        -0.483041
 H         3.583533         0.013416        -2.058883
 H         5.036122        -2.556988         0.549422
 H         4.357355        -1.239477         1.415929
 H         2.808943        -3.268148        -0.386177
 H         2.346430        -2.527700         1.121856
 H         1.839259        -1.516710        -1.722690
