19
Iteration:   256
 C        -0.048960         0.118292        -0.104710
 C         1.459869         0.096890        -0.294021
 O         2.015500         0.253541         0.997429
 C         2.628828         1.045254        -0.071218
 C         3.607256        -0.073996        -0.942194
 O         4.652898        -0.764024        -0.235551
 C         4.064809        -1.905614         0.443936
 C         2.717094        -2.261021        -0.220665
 C         2.338567        -0.993691        -1.049392
 H        -0.433200         1.102314         0.142745
 H        -0.588139        -0.369147        -0.972350
 H        -0.164484        -0.541233         0.776074
 H         2.681070         2.065922         0.265628
 H         3.908728         0.361887        -1.894580
 H         4.767821        -2.721219         0.297087
 H         4.131917        -1.663111         1.559962
 H         2.871144        -3.124831        -0.751096
 H         1.936413        -2.415095         0.604145
 H         1.851464        -1.173339        -2.088707
