19
Iteration:  2877
 C         0.005350         0.204383         0.019784
 C         1.503487        -0.042922        -0.164297
 O         2.240401         0.546629         0.928340
 C         2.596529         0.890484        -0.461562
 C         3.493453        -0.235185        -1.003302
 O         4.506178        -0.655349        -0.197252
 C         4.002741        -1.858549         0.540599
 C         2.780665        -2.352846        -0.136416
 C         2.268948        -1.144105        -0.965938
 H        -0.100841         0.456276         1.129416
 H        -0.247847         1.021999        -0.682424
 H        -0.697455        -0.634309        -0.289112
 H         2.589829         1.962283        -0.433127
 H         3.808512         0.096341        -1.985033
 H         4.944880        -2.456723         0.525592
 H         3.910006        -1.499791         1.529895
 H         3.031552        -3.285750        -0.748663
 H         1.979555        -2.627878         0.596160
 H         1.889286        -1.156769        -2.014995
