19
Iteration:  4454charge 0 multiplicity 1
 C        -0.124725         0.332960        -0.301789
 C         1.357142        -0.072640        -0.238491
 O         2.155982         0.417394         0.934654
 C         2.495455         0.890036        -0.360790
 C         3.489363        -0.147302        -0.984911
 O         4.494945        -0.599540        -0.130339
 C         4.403818        -2.006272         0.262629
 C         2.854299        -2.159457         0.280371
 C         2.252438        -1.287853        -0.865218
 H        -0.685467        -0.138302        -1.148690
 H        -0.632941         0.192843         0.731745
 H        -0.178647         1.424101        -0.277212
 H         2.596937         1.947200        -0.608085
 H         3.801545        -0.059383        -2.018884
 H         4.936138        -2.599007        -0.544822
 H         4.974414        -2.068610         1.205000
 H         2.461295        -3.176967         0.139839
 H         2.554232        -1.761412         1.246921
 H         1.885323        -1.770416        -1.818794
