19
Iteration:  1500
 C        -0.072510         0.496144        -0.317510
 C         1.358877        -0.017657        -0.156258
 O         2.161656         0.278842         1.022685
 C         2.516183         0.863957        -0.213741
 C         3.485214        -0.092619        -0.878795
 O         4.442213        -0.542257         0.021641
 C         4.411721        -1.994698        -0.004029
 C         2.807531        -2.326155         0.020434
 C         2.283817        -1.260434        -0.888806
 H        -0.816699        -0.348536        -0.145825
 H        -0.354524         1.267664         0.471999
 H        -0.304300         0.797358        -1.411698
 H         2.425670         1.952919        -0.285251
 H         3.901006         0.249439        -1.855526
 H         5.059669        -2.485894        -0.812775
 H         4.842814        -2.436715         0.957172
 H         2.526519        -3.343009        -0.222401
 H         2.456918        -2.191101         1.098566
 H         1.971481        -1.600875        -1.950282
