19
Iteration:  2004
 C        -0.055717         0.223312        -0.403432
 C         1.405036        -0.021826        -0.089993
 O         2.147038         0.400143         1.142138
 C         2.516831         0.924858        -0.108094
 C         3.445340        -0.093999        -0.794594
 O         4.572597        -0.598969        -0.179596
 C         4.320958        -2.059194         0.068144
 C         2.763629        -2.307623        -0.095325
 C         2.294496        -1.063813        -0.846016
 H        -0.664052        -0.511713         0.099044
 H        -0.446440         1.243581        -0.289455
 H        -0.063053         0.084804        -1.505200
 H         2.472380         1.968900         0.006081
 H         3.695673         0.193701        -1.850482
 H         4.996781        -2.553265        -0.559449
 H         4.512985        -2.169565         1.159582
 H         2.400208        -3.095541        -0.844657
 H         2.170768        -2.209411         0.816028
 H         1.990417        -1.319197        -1.907845
