19
Iteration:  3496
 C        -0.058070         0.374461        -0.236654
 C         1.391471        -0.031709        -0.297956
 O         2.009726         0.295705         1.004433
 C         2.620589         0.867471        -0.281726
 C         3.472190        -0.224599        -1.088928
 O         4.621848        -0.700678        -0.436262
 C         4.259158        -1.761316         0.472355
 C         2.833272        -2.166324         0.234254
 C         2.260717        -1.213706        -0.820548
 H        -0.686853         0.141810        -1.102630
 H        -0.458997        -0.230192         0.597366
 H        -0.077891         1.432970         0.006542
 H         2.636889         1.983645        -0.231870
 H         3.655276         0.056623        -2.157607
 H         4.920376        -2.630248         0.222204
 H         4.375487        -1.468994         1.543335
 H         2.632498        -3.215745        -0.053059
 H         2.399979        -2.155918         1.202765
 H         2.009110        -1.899820        -1.623709
