19
Iteration:  4079charge 0 multiplicity 1
 C        -0.026298         0.024584        -0.400439
 C         1.475829         0.071112        -0.144860
 O         2.256414         0.505677         1.037589
 C         2.585296         0.999304        -0.313047
 C         3.411475        -0.174567        -0.950016
 O         4.554486        -0.701372        -0.418112
 C         4.133228        -1.772804         0.472984
 C         2.737541        -2.352258         0.098857
 C         2.319033        -1.155280        -0.714850
 H        -0.172221        -0.439486        -1.361142
 H        -0.594330        -0.467581         0.398651
 H        -0.533456         0.997326        -0.405154
 H         2.535069         2.078880        -0.543373
 H         3.553020         0.130564        -2.013052
 H         4.827071        -2.643123         0.426229
 H         4.176816        -1.421389         1.552851
 H         2.795712        -3.227063        -0.506152
 H         1.929425        -2.530108         0.855261
 H         1.748924        -1.352735        -1.623473
