19
Iteration:  3827
 C        -0.100746         0.273920        -0.294781
 C         1.403043         0.012398        -0.149067
 O         1.967305         0.578323         0.998032
 C         2.593513         0.913615        -0.278942
 C         3.420683        -0.234852        -0.948348
 O         4.647979        -0.677516        -0.274143
 C         4.400579        -1.892173         0.296143
 C         2.857774        -2.355130         0.106979
 C         2.254116        -1.248969        -0.818350
 H        -0.290531         0.440030        -1.376203
 H        -0.784042        -0.359735         0.200239
 H        -0.263918         1.324905         0.068614
 H         2.371597         2.026196        -0.371568
 H         3.696739         0.048136        -1.988267
 H         4.935856        -2.810258        -0.130842
 H         4.606513        -1.781253         1.404542
 H         2.725292        -3.397088        -0.292411
 H         2.251065        -2.359155         1.058066
 H         1.824440        -1.497285        -1.840282
