19
Iteration:   688
 C        -0.125239         0.431217        -0.088372
 C         1.332790        -0.036630        -0.159802
 O         2.144949         0.426487         0.989576
 C         2.554084         0.895378        -0.332172
 C         3.425347        -0.137531        -0.882564
 O         4.677623        -0.685275        -0.222078
 C         4.121234        -1.877786         0.517994
 C         2.990294        -2.467255        -0.272735
 C         2.233197        -1.174893        -0.946895
 H        -0.771121        -0.285824         0.496710
 H        -0.051701         1.327724         0.608584
 H        -0.666704         0.716128        -0.991976
 H         2.589501         1.982150        -0.625244
 H         3.830809         0.130093        -1.866634
 H         4.937456        -2.713406         0.634063
 H         3.820598        -1.566118         1.466150
 H         3.402333        -3.013583        -1.159020
 H         2.323517        -3.142947         0.365897
 H         1.910067        -1.216983        -1.957286
