19
Iteration:  1412charge 0 multiplicity 1
 C        -0.051708         0.090839        -0.432832
 C         1.424160         0.158416        -0.282004
 O         1.842272         0.249454         1.052299
 C         2.706933         0.973560         0.123692
 C         3.545332        -0.009399        -0.791470
 O         4.719780        -0.701089        -0.379009
 C         4.243541        -2.091011        -0.015247
 C         2.701510        -2.133600         0.190699
 C         2.286145        -1.057260        -0.804320
 H        -0.561224        -0.498085         0.364812
 H        -0.425795         1.158978        -0.110037
 H        -0.467674        -0.203059        -1.435971
 H         2.820018         2.051250         0.409800
 H         3.850892         0.450553        -1.744152
 H         4.610869        -2.684069        -0.909422
 H         4.793342        -2.446133         0.905047
 H         2.467868        -3.103276        -0.079268
 H         2.418076        -1.592284         1.117754
 H         2.090459        -1.418950        -1.875841
