19
Iteration:  1285charge 0 multiplicity 1
 C         0.046116         0.061898        -0.082052
 C         1.495975        -0.014870        -0.205459
 O         2.158090         0.557265         0.971744
 C         2.614077         1.005933        -0.336971
 C         3.526360        -0.070623        -0.810925
 O         4.410409        -0.541748         0.203235
 C         4.204862        -2.037054         0.085734
 C         2.716682        -2.433071        -0.277665
 C         2.234054        -1.101178        -0.914237
 H        -0.418422        -0.881489         0.032661
 H        -0.303298         0.811392         0.603608
 H        -0.323510         0.425253        -1.060909
 H         2.690745         2.095302        -0.582074
 H         3.964370        -0.021738        -1.818227
 H         4.804164        -2.308376        -0.846691
 H         4.686093        -2.561998         0.941435
 H         2.592151        -3.410957        -0.891610
 H         2.095240        -2.631126         0.589208
 H         1.918922        -1.014155        -1.971522
