19
Iteration:   465charge 0 multiplicity 1
 C        -0.033426         0.088859        -0.009873
 C         1.407709        -0.016515        -0.289806
 O         2.047999         0.448756         0.998509
 C         2.674947         0.966699        -0.160643
 C         3.579804        -0.103548        -0.915098
 O         4.648023        -0.816516        -0.273317
 C         4.015947        -1.821359         0.480801
 C         2.751093        -2.282814        -0.252909
 C         2.348832        -1.018125        -1.035033
 H        -0.310491        -0.768746         0.568855
 H        -0.248666         0.848185         0.691519
 H        -0.808033         0.111075        -0.785545
 H         2.811452         2.093658        -0.267379
 H         4.036788         0.491090        -1.729236
 H         4.774744        -2.586513         0.735565
 H         3.738945        -1.445447         1.467304
 H         3.031056        -3.026028        -0.981865
 H         1.831176        -2.647140         0.238304
 H         1.936081        -1.276340        -2.080061
