19
Iteration:  4114
 C        -0.071568         0.268899        -0.251347
 C         1.454097         0.020102        -0.213681
 O         2.087878         0.460960         1.035219
 C         2.608686         0.845897        -0.334396
 C         3.424966        -0.244783        -0.989973
 O         4.598758        -0.799234        -0.440065
 C         4.151522        -1.626682         0.627366
 C         2.865185        -2.293951         0.023814
 C         2.285310        -1.205665        -0.829774
 H        -0.502127         0.303076        -1.235193
 H        -0.540626        -0.615184         0.260075
 H        -0.219626         1.238030         0.240641
 H         2.479751         1.920164        -0.480621
 H         3.589293         0.094049        -2.034240
 H         4.975868        -2.398514         0.580021
 H         4.134269        -0.998162         1.600623
 H         3.357477        -3.081319        -0.604936
 H         2.118061        -2.736953         0.767048
 H         1.867932        -1.811018        -1.728621
