19
Iteration:  1723
 C         0.035934         0.091834        -0.448232
 C         1.446589         0.069194        -0.152991
 O         1.860998         0.491225         1.129801
 C         2.552012         0.999164        -0.031064
 C         3.594204        -0.064935        -0.793440
 O         4.638846        -0.778825        -0.257856
 C         4.242246        -2.174992        -0.059942
 C         2.785037        -2.160459         0.103460
 C         2.317041        -0.995128        -0.831624
 H        -0.214698        -1.013859        -0.260173
 H        -0.682543         0.666373         0.261110
 H        -0.358258         0.346896        -1.485079
 H         2.418195         2.105083        -0.145354
 H         3.894667         0.510419        -1.685230
 H         4.406691        -2.703836        -0.999631
 H         4.768674        -2.577939         0.722920
 H         2.546005        -3.222164         0.098126
 H         2.733679        -1.744276         1.083897
 H         1.675905        -1.267162        -1.689930
