19
Iteration:  3422
 C        -0.016696         0.063900        -0.030849
 C         1.473902         0.024371        -0.153361
 O         2.273772         0.710447         0.903723
 C         2.621508         0.918733        -0.432306
 C         3.507339        -0.233764        -0.998490
 O         4.553033        -0.741207        -0.268276
 C         3.971833        -1.783316         0.548319
 C         2.783905        -2.351138        -0.146999
 C         2.263862        -1.186682        -0.803002
 H        -0.624605         0.210067        -0.988677
 H        -0.360736        -0.942870         0.243244
 H        -0.192287         0.828481         0.768889
 H         2.714120         1.916497        -0.911944
 H         3.789339        -0.069871        -2.080637
 H         4.706575        -2.540708         0.820454
 H         3.549439        -1.279546         1.374776
 H         3.056130        -3.217484        -0.747945
 H         2.092210        -2.774598         0.543340
 H         1.646244        -1.382678        -1.716044
