19
Iteration:  1913
 C         0.008119         0.075321        -0.138112
 C         1.462247         0.039721        -0.223227
 O         2.185569         0.198969         0.985205
 C         2.741397         0.930927        -0.093696
 C         3.526981        -0.066838        -0.915728
 O         4.524130        -0.717721        -0.370654
 C         3.962143        -1.664298         0.569708
 C         2.725673        -2.266235        -0.261705
 C         2.249344        -1.049743        -0.987830
 H        -0.120525        -0.946360         0.333423
 H        -0.296485         0.868675         0.537163
 H        -0.474308         0.291597        -1.106137
 H         2.957028         2.004964         0.193394
 H         3.833028         0.364752        -1.873225
 H         4.694606        -2.386835         0.718340
 H         3.732524        -1.168805         1.543656
 H         3.118391        -3.088547        -0.865248
 H         2.044439        -2.677507         0.513200
 H         1.909465        -1.283686        -1.953423
