19
Iteration:  2227
 C         0.029373         0.008924        -0.185820
 C         1.526355         0.036058        -0.115474
 O         2.205459         0.352387         1.130310
 C         2.617854         1.038930        -0.130317
 C         3.533269        -0.087280        -0.923285
 O         4.649448        -0.772556        -0.422545
 C         3.914329        -1.720934         0.530446
 C         2.687370        -2.306616        -0.281801
 C         2.283000        -1.079783        -0.992949
 H        -0.380561        -1.009522        -0.217784
 H        -0.377510         0.503187         0.662085
 H        -0.313379         0.454988        -1.134965
 H         2.610757         2.124657        -0.035765
 H         3.756282         0.366667        -1.911097
 H         4.707173        -2.522862         0.883700
 H         3.477894        -1.185270         1.385870
 H         2.944138        -3.171028        -0.886206
 H         1.865948        -2.715590         0.370667
 H         1.807659        -1.126358        -1.975755
