19
Iteration:   551
 C        -0.078717         0.343014        -0.207300
 C         1.407115        -0.024506        -0.211401
 O         2.032385         0.337428         1.051305
 C         2.526072         0.957735        -0.167557
 C         3.479489        -0.100129        -0.854258
 O         4.634418        -0.734749        -0.328859
 C         4.208451        -1.939118         0.402537
 C         2.910671        -2.340373        -0.168560
 C         2.272569        -1.079907        -0.871448
 H        -0.690419        -0.437218         0.206345
 H        -0.073877         1.173805         0.462538
 H        -0.421092         0.693417        -1.150941
 H         2.533370         2.071317        -0.318440
 H         3.720377         0.282085        -1.869915
 H         4.917978        -2.647030         0.193177
 H         4.201964        -1.676426         1.498089
 H         3.070937        -3.093281        -0.926987
 H         2.191932        -2.839557         0.537943
 H         2.035140        -1.305995        -1.976875
