19
Iteration:  4136charge 0 multiplicity 1
 C        -0.032119         0.373836        -0.142417
 C         1.386917        -0.034121        -0.310250
 O         2.102422         0.288857         0.845495
 C         2.586526         0.875910        -0.303878
 C         3.441936        -0.215316        -1.015581
 O         4.603844        -0.710908        -0.413378
 C         4.150615        -1.610908         0.649053
 C         2.952449        -2.374975         0.125527
 C         2.221741        -1.236170        -0.868809
 H        -0.452486         0.756112        -1.060773
 H        -0.740354        -0.402063         0.226970
 H         0.042499         1.253474         0.492451
 H         2.735500         1.966714        -0.194528
 H         3.694745         0.272311        -1.956382
 H         4.993050        -2.283077         0.913934
 H         3.762163        -0.876044         1.438568
 H         3.216925        -3.324030        -0.409321
 H         2.229217        -2.571548         0.980665
 H         1.588178        -1.719902        -1.689952
