19
Iteration:  1138charge 0 multiplicity 1
 C         0.006096         0.559791        -0.522562
 C         1.354081        -0.115964        -0.095908
 O         2.065278         0.154624         1.212373
 C         2.621930         0.741320         0.075582
 C         3.358271        -0.083034        -1.035700
 O         4.645460        -0.705857        -0.617531
 C         4.222370        -1.659980         0.507280
 C         2.892031        -2.324218        -0.026497
 C         2.223212        -1.195589        -0.795382
 H        -0.886100        -0.115321        -0.589958
 H        -0.224899         1.270315         0.244714
 H         0.083557         1.100242        -1.476133
 H         2.675454         1.849394         0.091372
 H         3.428499         0.371513        -2.043125
 H         5.076874        -2.325973         0.562320
 H         3.965111        -1.118318         1.390835
 H         3.185955        -3.085780        -0.773169
 H         2.269130        -2.960286         0.748682
 H         1.783211        -1.580038        -1.677186
