19
Iteration:  4797
 C        -0.025585         0.173077        -0.431694
 C         1.442706         0.013256        -0.149998
 O         2.058684         0.505989         0.971885
 C         2.654750         0.977564        -0.334228
 C         3.385771        -0.210202        -0.967926
 O         4.558741        -0.674684        -0.342960
 C         4.304470        -1.941315         0.296135
 C         2.819154        -2.247084         0.352184
 C         2.213990        -1.176903        -0.718680
 H        -0.192970        -0.074227        -1.483784
 H        -0.539541        -0.535504         0.121891
 H        -0.290176         1.229316        -0.209391
 H         2.607348         2.078370        -0.527954
 H         3.389218        -0.057813        -2.086233
 H         4.946374        -2.499788        -0.336081
 H         4.599524        -1.991103         1.394163
 H         2.679430        -3.245935         0.107457
 H         2.373218        -1.961972         1.320375
 H         1.868232        -1.628581        -1.635993
