19
Iteration:  4292charge 0 multiplicity 1
 C        -0.040082         0.308704        -0.221280
 C         1.434223        -0.062777        -0.194664
 O         2.282842         0.248807         0.882529
 C         2.547581         0.879314        -0.339599
 C         3.461838        -0.215105        -1.073620
 O         4.554963        -0.575468        -0.280492
 C         4.109846        -1.676515         0.586342
 C         2.813224        -2.265459         0.105328
 C         2.222896        -1.259450        -0.858413
 H        -0.460304         0.246612        -1.231384
 H        -0.650236        -0.092973         0.529274
 H        -0.036928         1.326832         0.166316
 H         2.649356         1.968624        -0.413397
 H         3.711509         0.041927        -2.109023
 H         4.961762        -2.330152         0.496808
 H         3.859759        -1.290989         1.551406
 H         2.880161        -3.237064        -0.496741
 H         2.221575        -2.620157         0.921976
 H         1.733991        -1.626196        -1.827070
