19
Iteration:  5000charge 0 multiplicity 1
 C        -0.022069         0.173282        -0.285923
 C         1.498941         0.046941        -0.186289
 O         2.179159         0.437294         0.909411
 C         2.623128         0.961789        -0.388860
 C         3.424191        -0.214005        -1.034918
 O         4.497176        -0.598004        -0.229303
 C         4.293204        -1.847924         0.461394
 C         2.711001        -2.291983         0.161134
 C         2.180037        -1.238289        -0.789763
 H        -0.319086        -0.102080        -1.282126
 H        -0.398674        -0.610631         0.528495
 H        -0.363749         1.250711        -0.159196
 H         2.617884         2.043801        -0.417864
 H         3.712731         0.073942        -2.069773
 H         4.930944        -2.572182        -0.104054
 H         4.607684        -1.760574         1.492515
 H         2.744498        -3.341868        -0.178398
 H         2.148753        -2.332229         1.140661
 H         1.859168        -1.479787        -1.799155
