19
Iteration:  2689
 C        -0.077142         0.217941        -0.366425
 C         1.484417         0.162756        -0.283125
 O         2.003946         0.205272         1.067542
 C         2.728850         0.914145         0.026580
 C         3.422498        -0.178054        -0.929702
 O         4.635869        -0.757659        -0.502085
 C         4.265525        -1.978808         0.292020
 C         2.711131        -2.070732         0.179097
 C         2.269061        -1.016006        -0.872695
 H        -0.485252         0.019386        -1.335384
 H        -0.479736        -0.472826         0.506435
 H        -0.539478         1.174889        -0.052948
 H         2.861154         1.990415        -0.034231
 H         3.722961         0.334230        -1.811568
 H         4.764926        -2.861310        -0.144960
 H         4.589048        -1.721062         1.277323
 H         2.446435        -3.029927        -0.249988
 H         2.215978        -1.887853         1.133421
 H         1.880962        -1.658056        -1.615672
