19
Iteration:  1361
 C        -0.018075         0.293636        -0.319822
 C         1.399391        -0.010091        -0.095773
 O         2.072442         0.409331         1.048998
 C         2.526633         0.976334        -0.161874
 C         3.435157        -0.079086        -0.817297
 O         4.503740        -0.641931        -0.024654
 C         4.364002        -2.056212        -0.004678
 C         2.818663        -2.389852        -0.104510
 C         2.297413        -1.078769        -0.851745
 H        -0.693591        -0.203437         0.367103
 H        -0.193469         1.359869        -0.309775
 H        -0.357483        -0.075418        -1.325207
 H         2.600987         2.074582        -0.194092
 H         3.852384         0.238547        -1.799087
 H         5.001877        -2.454752        -0.823081
 H         4.789536        -2.495487         0.886446
 H         2.481315        -3.329926        -0.684262
 H         2.408361        -2.382560         0.926100
 H         1.872620        -1.209401        -1.872086
