19
Iteration:   302charge 0 multiplicity 1
 C         0.081553         0.241246        -0.463601
 C         1.491297         0.042797        -0.058805
 O         2.181016         0.128016         1.236738
 C         2.660618         0.902795         0.000791
 C         3.409156        -0.053896        -1.058628
 O         4.588887        -0.635424        -0.401272
 C         4.090613        -1.798598         0.427317
 C         2.694299        -2.277850        -0.098152
 C         2.181744        -1.051552        -0.956096
 H        -0.370553         1.237939        -0.272377
 H         0.066146        -0.003780        -1.595054
 H        -0.529699        -0.635207         0.068656
 H         2.825754         1.972243         0.154847
 H         3.801453         0.372550        -2.003354
 H         4.897493        -2.610971         0.381007
 H         4.040724        -1.538486         1.512505
 H         2.794807        -3.216817        -0.726980
 H         1.975728        -2.437518         0.798503
 H         1.734588        -1.414330        -1.917422
