19
Iteration:  1507
 C        -0.067165         0.420954        -0.267399
 C         1.394114        -0.020180        -0.190712
 O         2.132032         0.279733         1.025079
 C         2.487745         0.901246        -0.289141
 C         3.489680        -0.110452        -0.855056
 O         4.514169        -0.580664         0.037254
 C         4.357332        -2.003202         0.040502
 C         2.745026        -2.296146        -0.002524
 C         2.319729        -1.230098        -0.900259
 H        -0.868595        -0.221981        -0.000050
 H        -0.197443         1.264148         0.436757
 H        -0.317278         0.749585        -1.215350
 H         2.311964         1.997570        -0.347280
 H         3.831564         0.310289        -1.813382
 H         4.807597        -2.333255        -0.865111
 H         4.973433        -2.360123         0.913773
 H         2.555249        -3.303182        -0.395960
 H         2.577660        -2.041138         1.050036
 H         2.129518        -1.528706        -1.896862
