19
Iteration:  3546charge 0 multiplicity 1
 C         0.003031         0.378515        -0.535655
 C         1.360994        -0.005495        -0.095867
 O         1.977395         0.497730         1.133806
 C         2.619958         0.832729        -0.286454
 C         3.326632        -0.294930        -0.916965
 O         4.564018        -0.636314        -0.417817
 C         4.426082        -1.910834         0.213088
 C         2.914628        -2.238150         0.254622
 C         2.223323        -1.209774        -0.634505
 H         0.064687         0.163598        -1.631838
 H        -0.799860        -0.279364        -0.083279
 H        -0.302143         1.452805        -0.466729
 H         2.633492         1.883548        -0.377736
 H         3.373365         0.047144        -1.953316
 H         4.864627        -2.675637        -0.459659
 H         5.018695        -2.005951         1.158406
 H         2.746389        -3.222474        -0.226307
 H         2.468485        -2.366063         1.311669
 H         1.633459        -1.729907        -1.422378
