19
Iteration:    84charge 0 multiplicity 1
 C        -0.058328         0.305090        -0.537070
 C         1.374872        -0.036107        -0.082820
 O         2.263095         0.174759         1.240330
 C         2.554085         0.866519         0.023165
 C         3.453926         0.011687        -0.890586
 O         4.607265        -0.670355        -0.471438
 C         4.164629        -1.854103         0.377153
 C         2.780869        -2.292691        -0.081811
 C         2.261459        -1.088649        -0.881998
 H        -0.313696         1.332418        -0.317639
 H         0.057239         0.285022        -1.651123
 H        -0.878733        -0.366207        -0.194754
 H         2.398981         1.928242        -0.051573
 H         3.675904         0.458390        -1.885664
 H         4.956014        -2.662918         0.343128
 H         4.067715        -1.399783         1.349505
 H         2.662054        -3.229610        -0.749418
 H         2.148123        -2.465871         0.879293
 H         1.794939        -1.231019        -1.851991
