19
Iteration:  2823charge 0 multiplicity 1
 C         0.043496        -0.067314         0.012901
 C         1.524956         0.068372        -0.244254
 O         2.307734         0.426533         0.954434
 C         2.781961         0.975368        -0.344589
 C         3.467061        -0.144473        -1.105736
 O         4.560003        -0.787283        -0.247036
 C         3.894460        -1.705223         0.622243
 C         2.609526        -2.218393        -0.141501
 C         2.231648        -1.092993        -0.961399
 H        -0.455976         0.913808         0.268088
 H        -0.528991        -0.449511        -0.852985
 H        -0.073950        -0.763790         0.897179
 H         2.780645         2.068768        -0.374711
 H         3.822121         0.205523        -2.074985
 H         4.693277        -2.435152         0.899853
 H         3.620382        -1.114513         1.456057
 H         2.964794        -2.969976        -0.860293
 H         1.786509        -2.442107         0.476479
 H         1.744015        -1.356116        -1.935773
