19
Iteration:  4773
 C        -0.071197         0.125595        -0.401674
 C         1.381548        -0.036514        -0.107611
 O         2.218802         0.677260         0.941253
 C         2.496270         0.927283        -0.404285
 C         3.429830        -0.198378        -0.981114
 O         4.593356        -0.684206        -0.298041
 C         4.302617        -1.987132         0.405401
 C         2.773388        -2.256434         0.201740
 C         2.238410        -1.150837        -0.663939
 H        -0.242117         0.243368        -1.424655
 H        -0.428705        -0.805355        -0.192353
 H        -0.544352         0.919153         0.149080
 H         2.668814         1.972490        -0.470236
 H         3.666404         0.048517        -2.071702
 H         4.938993        -2.592935        -0.254659
 H         4.530913        -2.073361         1.471584
 H         2.681103        -3.174989        -0.352390
 H         2.209980        -2.307501         1.142259
 H         1.780736        -1.520227        -1.591709
