19
Iteration:  2539
 C         0.006179        -0.062077        -0.059887
 C         1.546923         0.064111        -0.176007
 O         2.309974         0.475517         0.937515
 C         2.683085         1.020704        -0.292478
 C         3.558487        -0.125614        -0.986972
 O         4.542725        -0.787976        -0.288108
 C         3.873078        -1.790728         0.598597
 C         2.641534        -2.289445        -0.198279
 C         2.232287        -1.012663        -0.939475
 H        -0.470037        -0.475968        -0.896764
 H        -0.250131        -0.778503         0.733955
 H        -0.471697         0.850320         0.210183
 H         2.796550         2.088151        -0.315174
 H         3.919610         0.191648        -1.995216
 H         4.647235        -2.590280         0.613951
 H         3.796103        -1.492198         1.639336
 H         3.166726        -2.989587        -0.905399
 H         1.900804        -2.820283         0.361172
 H         1.693841        -0.961154        -1.911598
