19
Iteration:    64charge 0 multiplicity 1
 C         0.053004         0.436957        -0.493403
 C         1.404939        -0.018844        -0.074735
 O         2.095115         0.299937         1.210941
 C         2.590103         0.900254        -0.029971
 C         3.348366        -0.129337        -0.887484
 O         4.527773        -0.630392        -0.401305
 C         4.254436        -1.830309         0.356824
 C         2.914145        -2.440145        -0.182547
 C         2.195652        -1.197062        -0.800279
 H        -0.227865         1.295304         0.025858
 H         0.079843         0.650199        -1.546495
 H        -0.708765        -0.295292        -0.316105
 H         2.655485         1.965104         0.075570
 H         3.464763         0.269410        -1.924450
 H         5.122917        -2.541069         0.109639
 H         4.205556        -1.591702         1.404984
 H         3.099579        -3.121743        -0.996914
 H         2.359365        -2.858035         0.577410
 H         1.715503        -1.478027        -1.738060
