19
Iteration:  4026
 C        -0.095145         0.268770        -0.137446
 C         1.391983        -0.017400        -0.397018
 O         2.107289         0.370538         0.839135
 C         2.484153         0.875255        -0.371827
 C         3.502466        -0.070238        -0.949595
 O         4.645973        -0.656738        -0.186529
 C         4.308307        -1.888750         0.412714
 C         2.769463        -2.218709         0.223694
 C         2.286953        -1.225077        -0.878239
 H        -0.722685         0.194378        -1.002923
 H        -0.545978        -0.349260         0.690593
 H        -0.095036         1.319206         0.217255
 H         2.362009         1.945417        -0.412805
 H         3.814654         0.293466        -1.947260
 H         4.834615        -2.768615         0.003807
 H         4.657740        -1.925256         1.517370
 H         2.759596        -3.146109        -0.358745
 H         2.041313        -2.236836         1.101318
 H         1.930814        -1.762552        -1.809958
