19
Iteration:    82charge 0 multiplicity 1
 C        -0.055539         0.322415        -0.543338
 C         1.377063        -0.028149        -0.080801
 O         2.262865         0.180747         1.260704
 C         2.546617         0.860064         0.014772
 C         3.439739         0.004521        -0.896976
 O         4.595988        -0.665703        -0.464280
 C         4.169136        -1.852676         0.358247
 C         2.793514        -2.314486        -0.088871
 C         2.280443        -1.096668        -0.867592
 H        -0.352168         1.411649        -0.305701
 H         0.060101         0.322124        -1.689765
 H        -0.878319        -0.399427        -0.195126
 H         2.401197         1.946406        -0.121950
 H         3.660359         0.422276        -1.887577
 H         4.946207        -2.596918         0.343800
 H         4.047484        -1.392629         1.372561
 H         2.674700        -3.273062        -0.768084
 H         2.122635        -2.546104         0.926873
 H         1.837096        -1.215236        -1.877731
