19
Iteration:  1333
 C        -0.076312         0.376187        -0.222333
 C         1.394474         0.018094        -0.120694
 O         2.057892         0.616642         1.031502
 C         2.527358         0.981459        -0.282310
 C         3.452403        -0.181855        -0.824878
 O         4.448055        -0.630188         0.149628
 C         4.444783        -2.019466         0.008845
 C         2.922988        -2.551239        -0.321914
 C         2.221648        -1.205450        -0.802798
 H        -0.681384        -0.440227         0.265821
 H        -0.232241         1.327713         0.302186
 H        -0.600985         0.514749        -1.154088
 H         2.607920         2.036502        -0.454869
 H         4.004665        -0.052576        -1.752621
 H         5.220503        -2.240418        -0.705969
 H         4.818999        -2.578016         0.948611
 H         2.780342        -3.241131        -1.086268
 H         2.535945        -3.111687         0.535285
 H         1.659135        -1.331263        -1.707821
