19
Iteration:  4383charge 0 multiplicity 1
 C         0.006577         0.084838        -0.350564
 C         1.484291        -0.014837        -0.100724
 O         2.185117         0.547427         0.992867
 C         2.571270         0.937070        -0.388854
 C         3.408583        -0.182723        -1.007624
 O         4.607133        -0.687067        -0.384551
 C         4.237448        -1.839880         0.455993
 C         2.658992        -2.260244         0.138466
 C         2.245444        -1.164711        -0.721480
 H        -0.112965         0.086745        -1.414875
 H        -0.511054        -0.682195         0.091847
 H        -0.438644         0.900670         0.202828
 H         2.497442         2.009166        -0.432852
 H         3.742411         0.199531        -1.999617
 H         4.844370        -2.719124         0.282261
 H         4.254864        -1.496514         1.498956
 H         2.837250        -3.182144        -0.451163
 H         2.031680        -2.437779         1.060886
 H         1.696738        -1.482678        -1.601403
