19
Iteration:  4157
 C        -0.048223         0.405110        -0.193905
 C         1.382305        -0.095531        -0.214171
 O         2.227590         0.180645         0.972505
 C         2.537773         0.805686        -0.372351
 C         3.479577        -0.238420        -1.117384
 O         4.602853        -0.622225        -0.364285
 C         4.183772        -1.599552         0.662611
 C         2.794501        -2.175858         0.134711
 C         2.249214        -1.285279        -0.896640
 H        -0.448166         0.713822        -1.131344
 H        -0.754262        -0.403329         0.102806
 H        -0.193581         1.281333         0.429126
 H         2.611658         1.901606        -0.493228
 H         3.699283        -0.028524        -2.171413
 H         4.863130        -2.449471         0.644712
 H         3.918430        -1.023554         1.557434
 H         2.985437        -3.082937        -0.440912
 H         2.050397        -2.459123         0.937827
 H         1.904927        -1.519522        -1.930426
