19
Iteration:  2846
 C         0.028953        -0.001632         0.072076
 C         1.496404         0.085234        -0.260786
 O         2.400985         0.348661         0.854892
 C         2.633729         1.024403        -0.453170
 C         3.554526        -0.137075        -1.047691
 O         4.478389        -0.747058        -0.223046
 C         3.867523        -1.756117         0.674318
 C         2.654531        -2.273908        -0.066480
 C         2.246110        -1.065569        -1.035947
 H        -0.303172         0.690524         0.944191
 H        -0.627888         0.249027        -0.721549
 H        -0.134576        -1.069349         0.393114
 H         2.671023         2.070761        -0.256325
 H         4.098489         0.135635        -1.976366
 H         4.754887        -2.418749         0.629283
 H         3.707321        -1.343859         1.669164
 H         3.119705        -3.017120        -0.698523
 H         1.937244        -2.545118         0.649285
 H         1.795063        -1.212074        -2.066210
