19
Iteration:  2400
 C        -0.043956         0.324603        -0.625402
 C         1.379329         0.078990        -0.127336
 O         1.946542         0.387054         1.177597
 C         2.626523         0.889791        -0.091858
 C         3.450795        -0.074781        -0.857260
 O         4.651730        -0.744292        -0.377955
 C         4.323091        -2.053100        -0.027627
 C         2.777326        -2.203679         0.282002
 C         2.266259        -1.123243        -0.644444
 H        -0.220331         0.618000        -1.715367
 H        -0.528992        -0.675320        -0.655026
 H        -0.620377         0.907982         0.183272
 H         2.654911         1.935617        -0.095926
 H         3.623920         0.322767        -1.850330
 H         4.678120        -2.755986        -0.824113
 H         4.946673        -2.369419         0.816063
 H         2.538453        -3.300471         0.117340
 H         2.799948        -1.877535         1.295509
 H         2.061717        -1.481334        -1.675726
