19
Iteration:  1313charge 0 multiplicity 1
 C        -0.122570         0.308782        -0.089503
 C         1.401722         0.017899        -0.100302
 O         2.148964         0.629512         0.991140
 C         2.520512         0.989661        -0.416006
 C         3.452717        -0.120964        -0.775148
 O         4.265655        -0.683905         0.188047
 C         4.387567        -2.149502         0.040066
 C         3.029549        -2.450184        -0.327139
 C         2.332254        -1.128225        -0.831727
 H        -0.697655        -0.666304        -0.020377
 H        -0.435877         1.222794         0.549433
 H        -0.373049         0.568991        -1.140453
 H         2.516087         1.972624        -0.853163
 H         3.882936        -0.020427        -1.804370
 H         5.128304        -2.438951        -0.702721
 H         4.822970        -2.631311         0.884688
 H         2.943418        -3.121421        -1.164782
 H         2.440646        -2.796717         0.573056
 H         1.971496        -1.149906        -1.890509
