19
Iteration:   961charge 0 multiplicity 1
 C         0.005678         0.228536        -0.139382
 C         1.465753         0.035790        -0.125088
 O         2.182689         0.487010         1.032269
 C         2.591801         1.011615        -0.318445
 C         3.478403        -0.116932        -0.958919
 O         4.444770        -0.656982        -0.082299
 C         4.232806        -2.051398         0.314249
 C         2.782417        -2.396252        -0.238499
 C         2.226672        -1.091524        -0.873087
 H        -0.432542        -0.450564         0.591500
 H        -0.265645         1.253760         0.088778
 H        -0.550183        -0.017230        -1.024037
 H         2.583593         2.085737        -0.312346
 H         3.860745         0.239510        -1.935501
 H         4.999033        -2.624051        -0.339192
 H         4.410656        -2.210184         1.364054
 H         2.991027        -3.090340        -1.064444
 H         2.121494        -2.906479         0.555602
 H         1.702946        -1.321803        -1.768758
