19
Iteration:  1724charge 0 multiplicity 1
 C         0.034723         0.092007        -0.445695
 C         1.443802         0.069453        -0.158876
 O         1.857644         0.492237         1.133778
 C         2.542482         0.997028        -0.037096
 C         3.594048        -0.070599        -0.798916
 O         4.645162        -0.786048        -0.254119
 C         4.247810        -2.173921        -0.061731
 C         2.781396        -2.152837         0.092074
 C         2.324771        -0.987736        -0.827659
 H        -0.216943        -1.008007        -0.236952
 H        -0.689276         0.686329         0.245765
 H        -0.351368         0.349550        -1.446864
 H         2.394611         2.081821        -0.137121
 H         3.896876         0.523446        -1.666988
 H         4.390662        -2.703922        -1.004451
 H         4.786301        -2.616357         0.728741
 H         2.552984        -3.206471         0.136308
 H         2.720032        -1.734858         1.091779
 H         1.705474        -1.277275        -1.645246
