19
Iteration:  4686
 C         0.068662         0.109913        -0.098937
 C         1.550821        -0.081289        -0.225974
 O         2.278692         0.403609         0.877065
 C         2.664889         0.919986        -0.371085
 C         3.446095        -0.201677        -1.043485
 O         4.532056        -0.637932        -0.292002
 C         3.969491        -1.616058         0.687431
 C         2.704512        -2.277678        -0.035419
 C         2.207888        -1.216730        -0.885870
 H        -0.427987        -0.070513        -1.060461
 H        -0.478850        -0.480538         0.605891
 H        -0.187874         1.154991         0.256126
 H         2.606719         1.994061        -0.579776
 H         3.616850        -0.011778        -2.147571
 H         4.848216        -2.204628         0.681526
 H         3.756121        -1.225564         1.703506
 H         3.089734        -3.046787        -0.697390
 H         1.933173        -2.620086         0.624691
 H         1.795298        -1.707517        -1.797873
