19
Iteration:  3818charge 0 multiplicity 1
 C        -0.045286         0.288761        -0.273478
 C         1.419408         0.003587        -0.163217
 O         1.959310         0.544972         1.033241
 C         2.562986         0.930695        -0.299183
 C         3.501435        -0.237241        -1.015669
 O         4.578388        -0.659337        -0.305610
 C         4.329777        -1.938184         0.344792
 C         2.803046        -2.327144         0.086268
 C         2.314314        -1.217667        -0.800607
 H        -0.419806         0.337566        -1.288724
 H        -0.592118        -0.555598         0.162930
 H        -0.297366         1.108927         0.385736
 H         2.582593         2.048319        -0.599082
 H         3.650461         0.146534        -2.070832
 H         5.154897        -2.690717         0.115723
 H         4.525378        -1.683104         1.423124
 H         2.864487        -3.340069        -0.262926
 H         2.158298        -2.294220         1.024248
 H         2.001894        -1.607444        -1.803881
