19
Iteration:  3797
 C        -0.044204         0.108980        -0.235311
 C         1.437528         0.019227        -0.262561
 O         2.213052         0.402508         0.912423
 C         2.577543         0.983434        -0.320793
 C         3.422362        -0.117560        -0.957819
 O         4.605251        -0.711455        -0.313930
 C         4.215757        -1.847378         0.481819
 C         2.763368        -2.259573         0.115053
 C         2.218510        -1.126282        -0.820690
 H        -0.377963         0.441404        -1.204722
 H        -0.640229        -0.745026         0.112116
 H        -0.241773         0.900381         0.481267
 H         2.434958         2.097158        -0.297808
 H         3.624194         0.231935        -2.007705
 H         4.806419        -2.756993         0.358417
 H         4.357465        -1.591145         1.554591
 H         2.807319        -3.198933        -0.422341
 H         2.031179        -2.427328         0.940342
 H         1.886045        -1.467403        -1.817361
