19
Iteration:   841charge 0 multiplicity 1
 C         0.118036         0.490821        -0.446360
 C         1.394839        -0.050844        -0.058732
 O         2.205119         0.293574         1.143085
 C         2.585619         0.806111        -0.053386
 C         3.281727        -0.133110        -0.946931
 O         4.475142        -0.535898        -0.410880
 C         4.166310        -1.787851         0.413344
 C         2.949843        -2.459043        -0.092889
 C         2.203139        -1.283623        -0.808671
 H        -0.701532        -0.167350        -0.378113
 H        -0.009346         1.508875        -0.040607
 H         0.055750         0.724729        -1.476327
 H         2.634552         1.883359        -0.092352
 H         3.210572         0.271761        -1.982416
 H         5.121306        -2.470847         0.232408
 H         4.012577        -1.520339         1.406204
 H         3.158215        -2.938691        -1.090058
 H         2.416486        -3.227612         0.623905
 H         1.685546        -1.511721        -1.707845
