19
Iteration:  1918
 C        -0.013682         0.141619        -0.110475
 C         1.467650         0.019959        -0.232031
 O         2.158768         0.168899         1.014268
 C         2.719561         0.945914        -0.153624
 C         3.489951        -0.047800        -0.910903
 O         4.591153        -0.745065        -0.368446
 C         3.970134        -1.654553         0.577565
 C         2.782399        -2.300426        -0.260546
 C         2.266681        -1.003038        -0.980542
 H        -0.339493        -0.799899         0.329860
 H        -0.376596         0.927264         0.579726
 H        -0.553080         0.250006        -1.076826
 H         2.729811         1.983910         0.063334
 H         3.786594         0.244350        -1.945487
 H         4.760081        -2.486130         0.813276
 H         3.689182        -1.257338         1.576352
 H         3.125747        -3.211626        -0.851221
 H         1.958470        -2.745699         0.350433
 H         1.898094        -1.240462        -2.056765
