19
Iteration:  2463charge 0 multiplicity 1
 C        -0.093838         0.534898        -0.288071
 C         1.339320        -0.009596        -0.240978
 O         2.079526         0.306004         0.973817
 C         2.579057         0.856731        -0.228870
 C         3.416697        -0.150873        -0.953666
 O         4.602702        -0.677062        -0.253580
 C         4.443735        -1.940891         0.328996
 C         2.813291        -2.263797         0.165988
 C         2.196574        -1.260440        -0.870711
 H        -0.198713         1.403286        -0.994550
 H        -0.812036        -0.242821        -0.622845
 H        -0.401363         0.951327         0.663940
 H         2.684206         1.901882        -0.324657
 H         3.709652         0.247632        -1.961215
 H         4.938574        -2.682974        -0.301898
 H         4.813492        -1.934228         1.342131
 H         2.591428        -3.339701        -0.187611
 H         2.242051        -2.248429         1.074867
 H         2.041342        -1.647816        -1.887054
