19
Iteration:  2783charge 0 multiplicity 1
 C        -0.092750         0.251489        -0.208868
 C         1.473673         0.029031        -0.106879
 O         2.176909         0.530330         1.006050
 C         2.566694         0.975308        -0.324111
 C         3.450338        -0.175604        -0.941984
 O         4.565170        -0.811255        -0.349344
 C         4.185682        -1.888540         0.503900
 C         2.821489        -2.344896        -0.107904
 C         2.249866        -1.125200        -0.832099
 H        -0.163285         1.312116        -0.559464
 H        -0.676862        -0.502529        -0.666082
 H        -0.399130         0.403257         0.820990
 H         2.571345         2.023600        -0.484106
 H         3.839222         0.108314        -1.965118
 H         4.918067        -2.673380         0.245570
 H         4.087086        -1.743732         1.651124
 H         3.100911        -2.964107        -0.980439
 H         2.219002        -3.015818         0.625831
 H         1.637013        -1.440673        -1.705317
