19
Iteration:    67
 C         0.035956         0.440330        -0.516581
 C         1.410093        -0.020972        -0.079359
 O         2.134175         0.281045         1.251642
 C         2.564422         0.892303        -0.036312
 C         3.348560        -0.127040        -0.897564
 O         4.529424        -0.639890        -0.404100
 C         4.239520        -1.811280         0.332503
 C         2.883744        -2.450759        -0.173392
 C         2.237375        -1.165675        -0.795992
 H        -0.330401         1.356677         0.001375
 H         0.039669         0.555964        -1.596457
 H        -0.695398        -0.335882        -0.316692
 H         2.648724         2.000151         0.040274
 H         3.454682         0.287527        -1.904830
 H         5.097236        -2.459870         0.137546
 H         4.145342        -1.609514         1.419691
 H         3.097830        -3.161967        -0.904604
 H         2.304546        -2.818723         0.630355
 H         1.846186        -1.491315        -1.780329
