19
Iteration:  1016charge 0 multiplicity 1
 C        -0.026057         0.220478         0.045881
 C         1.482978        -0.016721        -0.016883
 O         2.198717         0.681318         0.920609
 C         2.590456         1.002632        -0.444403
 C         3.464377        -0.196034        -0.947828
 O         4.316526        -0.638676         0.167054
 C         4.175979        -2.084702         0.219576
 C         2.910130        -2.462041        -0.422672
 C         2.299182        -1.093979        -0.902343
 H        -0.605667        -0.140805         0.899045
 H        -0.227076         1.281445         0.051924
 H        -0.410186        -0.135871        -0.898418
 H         2.518364         2.034909        -0.780864
 H         3.962598        -0.086693        -1.924176
 H         5.065514        -2.598949        -0.100043
 H         4.177802        -2.369093         1.239894
 H         3.249064        -2.900247        -1.361268
 H         2.356134        -3.271322         0.175429
 H         1.763187        -1.248487        -1.788367
