19
Iteration:  4640charge 0 multiplicity 1
 C        -0.119695         0.188261        -0.241167
 C         1.393695        -0.010158        -0.189738
 O         2.074851         0.574611         0.943556
 C         2.613832         0.903080        -0.288307
 C         3.478114        -0.198338        -0.960171
 O         4.640656        -0.840659        -0.459038
 C         4.237020        -1.756867         0.563468
 C         2.812662        -2.324935         0.034317
 C         2.269169        -1.153173        -0.759631
 H        -0.566391        -0.352280        -1.043126
 H        -0.542431        -0.219980         0.675945
 H        -0.444118         1.181009        -0.206202
 H         2.762380         1.991423        -0.470737
 H         3.809759         0.283179        -1.949228
 H         4.958372        -2.587246         0.811698
 H         4.107422        -1.127531         1.415634
 H         3.142783        -3.147092        -0.668558
 H         2.170450        -2.667313         0.825332
 H         1.801788        -1.204818        -1.780315
