19
Iteration:  3420charge 0 multiplicity 1
 C        -0.038353         0.074040        -0.035406
 C         1.470904         0.024984        -0.153579
 O         2.274851         0.707656         0.884083
 C         2.609684         0.928696        -0.427511
 C         3.518520        -0.234163        -1.013891
 O         4.551496        -0.729661        -0.253617
 C         3.995892        -1.801300         0.552907
 C         2.781932        -2.387505        -0.150370
 C         2.251550        -1.147096        -0.798348
 H        -0.666416         0.251264        -0.942030
 H        -0.397347        -0.931821         0.332391
 H        -0.086203         0.817094         0.792339
 H         2.694935         1.870874        -0.939166
 H         3.853325        -0.084722        -2.080823
 H         4.720488        -2.580661         0.831806
 H         3.548277        -1.316950         1.440340
 H         3.128981        -3.223335        -0.792317
 H         2.094918        -2.794670         0.550097
 H         1.677737        -1.464917        -1.694777
