19
Iteration:  2498
 C        -0.008791         0.085589        -0.237393
 C         1.467564         0.000261        -0.177753
 O         2.200470         0.514881         0.979995
 C         2.681031         0.962545        -0.242658
 C         3.480009        -0.110799        -0.972919
 O         4.572745        -0.749865        -0.288377
 C         4.158615        -1.910316         0.403629
 C         2.590071        -2.253295         0.053481
 C         2.279113        -1.084588        -0.869757
 H        -0.479106         0.638659        -1.145810
 H        -0.502083        -0.916880        -0.203805
 H        -0.403878         0.548146         0.740315
 H         2.775982         2.047940        -0.413659
 H         3.844448         0.212727        -1.966055
 H         4.768344        -2.719517         0.066005
 H         4.414397        -1.729766         1.466121
 H         2.721017        -3.058992        -0.745799
 H         1.736059        -2.394636         0.781001
 H         1.851910        -1.466267        -1.846520
