19
Iteration:  4325
 C        -0.063680         0.238684        -0.137772
 C         1.443502        -0.004121        -0.268443
 O         2.153794         0.365499         0.959645
 C         2.574367         0.903582        -0.327341
 C         3.478309        -0.289740        -1.087535
 O         4.626051        -0.749334        -0.416039
 C         4.071676        -1.661435         0.666203
 C         2.841881        -2.193390         0.063203
 C         2.276601        -1.260708        -0.892592
 H        -0.584698         0.703642        -0.985873
 H        -0.599034        -0.600849         0.123778
 H        -0.024603         1.082170         0.499388
 H         2.437343         1.994309        -0.305744
 H         3.834795         0.134984        -2.019942
 H         4.892678        -2.261394         1.036643
 H         3.760144        -1.100053         1.515313
 H         3.204395        -3.084912        -0.530886
 H         2.265411        -2.504616         0.892457
 H         1.732788        -1.357165        -1.848049
