19
Iteration:  1993
 C        -0.073808         0.260947        -0.442306
 C         1.367539         0.028641        -0.028630
 O         2.164269         0.359890         1.143779
 C         2.611288         0.905076        -0.099467
 C         3.389326        -0.113157        -0.875061
 O         4.516240        -0.609506        -0.159136
 C         4.367329        -1.985832         0.166252
 C         2.809043        -2.311194        -0.170014
 C         2.216418        -1.069706        -0.823197
 H        -0.834088        -0.316502         0.063523
 H        -0.317562         1.296656        -0.182056
 H        -0.228011         0.018829        -1.511114
 H         2.683322         1.921239        -0.380251
 H         3.712496         0.378140        -1.824403
 H         4.885285        -2.657556        -0.463777
 H         4.733749        -2.180002         1.213438
 H         2.936450        -3.181847        -0.912931
 H         2.354051        -2.878234         0.656142
 H         1.801981        -1.309472        -1.848662
