19
Iteration:   606charge 0 multiplicity 1
 C         0.023688         0.090095        -0.467939
 C         1.436803         0.112791        -0.194436
 O         2.230553         0.105881         1.189361
 C         2.646819         0.942141         0.066589
 C         3.499397        -0.035641        -0.982955
 O         4.574214        -0.764354        -0.520643
 C         4.150059        -1.822540         0.416324
 C         2.615896        -2.115716         0.064881
 C         2.203705        -0.971228        -0.923530
 H        -0.476584        -0.326186         0.386582
 H        -0.416157         0.994818        -0.762803
 H         0.012762        -0.588717        -1.301331
 H         2.810935         2.012608         0.231726
 H         3.830054         0.438386        -1.941414
 H         4.759258        -2.603898         0.203174
 H         4.364602        -1.503628         1.512397
 H         2.492531        -3.069117        -0.461533
 H         1.908386        -2.215989         0.912469
 H         1.789429        -1.337884        -1.949759
