19
Iteration:  3859charge 0 multiplicity 1
 C        -0.063507         0.299837        -0.470906
 C         1.411291         0.043703        -0.161009
 O         2.053864         0.432924         1.047267
 C         2.565064         0.955661        -0.276935
 C         3.376206        -0.168145        -0.956881
 O         4.514900        -0.631063        -0.242005
 C         4.399957        -1.974281         0.139140
 C         2.860911        -2.344191         0.263395
 C         2.316030        -1.183459        -0.649159
 H        -0.323812        -0.185172        -1.461884
 H        -0.773047        -0.067733         0.241007
 H        -0.195049         1.387146        -0.677953
 H         2.272330         2.038077        -0.329778
 H         3.686049        -0.188472        -1.968638
 H         4.871005        -2.593566        -0.619027
 H         4.951906        -2.079450         1.129103
 H         2.466677        -3.209558        -0.306590
 H         2.600315        -2.301944         1.328215
 H         1.814295        -1.504569        -1.584551
