19
Iteration:  4113
 C        -0.067288         0.258028        -0.255882
 C         1.448149         0.023540        -0.202692
 O         2.092616         0.465722         1.034141
 C         2.604623         0.847041        -0.336318
 C         3.433865        -0.248260        -0.986035
 O         4.601621        -0.800099        -0.438429
 C         4.154784        -1.629180         0.623467
 C         2.869615        -2.293788         0.023509
 C         2.277861        -1.204136        -0.831202
 H        -0.483913         0.285256        -1.238019
 H        -0.553637        -0.609803         0.253077
 H        -0.245165         1.237218         0.203847
 H         2.476738         1.916768        -0.485306
 H         3.597525         0.138643        -2.010993
 H         4.938818        -2.421920         0.559058
 H         4.121415        -0.993642         1.570411
 H         3.337015        -3.074203        -0.581526
 H         2.105081        -2.724854         0.753006
 H         1.805120        -1.775166        -1.701439
