19
Iteration:    31
 C        -0.157623         0.511243        -0.275805
 C         1.343334         0.047777        -0.166647
 O         1.945498         0.377498         1.133243
 C         2.478924         0.875509        -0.134070
 C         3.504842        -0.171966        -0.850639
 O         4.679380        -0.744289        -0.403004
 C         4.275776        -1.879663         0.425414
 C         2.983277        -2.429971        -0.238014
 C         2.332324        -1.183809        -0.841355
 H        -0.188798         1.231433         0.473489
 H        -0.455116         0.997561        -1.179005
 H        -0.840639        -0.275048        -0.040114
 H         2.569113         1.941351        -0.058800
 H         3.720963         0.100674        -1.908518
 H         5.110546        -2.674041         0.345415
 H         4.240285        -1.563129         1.447799
 H         3.253092        -3.116606        -1.011580
 H         2.367645        -2.989297         0.350524
 H         1.955191        -1.349259        -1.850675
