19
Iteration:   271
 C        -0.028571         0.074305        -0.250687
 C         1.477433         0.072964        -0.229634
 O         2.243590         0.118233         1.017968
 C         2.628194         0.953067        -0.085425
 C         3.498253         0.038433        -0.874061
 O         4.545428        -0.763101        -0.325509
 C         4.073407        -1.883617         0.474533
 C         2.666149        -2.139591        -0.108389
 C         2.313778        -0.922522        -1.002192
 H        -0.513212         1.085616        -0.199952
 H        -0.390270        -0.385143        -1.212126
 H        -0.485985        -0.549855         0.624951
 H         2.739056         2.049686        -0.037993
 H         4.008256         0.449050        -1.753977
 H         4.804140        -2.733296         0.325552
 H         3.904309        -1.642059         1.496523
 H         2.585581        -3.092978        -0.819638
 H         1.896112        -2.298712         0.683349
 H         2.154309        -1.216144        -2.001138
