19
Iteration:  1153charge 0 multiplicity 1
 C         0.143663         0.606684        -0.524661
 C         1.396412        -0.051780        -0.062370
 O         1.984508         0.166528         1.190596
 C         2.574005         0.807898        -0.004892
 C         3.288177        -0.209248        -0.834234
 O         4.488399        -0.680726        -0.576333
 C         4.278214        -1.645674         0.369133
 C         3.030055        -2.424040        -0.045881
 C         2.196214        -1.241216        -0.806931
 H        -0.715147        -0.008145        -0.578774
 H        -0.136640         1.466390         0.164293
 H         0.375561         1.008353        -1.508899
 H         2.647825         1.876338        -0.008447
 H         3.341950         0.337071        -1.793802
 H         5.192342        -2.247845         0.548903
 H         4.193229        -1.217187         1.392312
 H         3.254770        -3.240981        -0.839905
 H         2.494009        -2.717994         0.827897
 H         1.758306        -1.488400        -1.835105
