19
Iteration:     1
 C        -0.019536         0.247878        -0.231938
 C         1.452984         0.003934        -0.183276
 O         2.142660         0.233561         1.054317
 C         2.614880         0.917247        -0.117950
 C         3.485731        -0.075360        -0.926863
 O         4.575978        -0.702458        -0.309127
 C         4.103688        -1.813795         0.463648
 C         2.784209        -2.296238        -0.190730
 C         2.273540        -1.063295        -0.948819
 H        -0.271985         1.169901         0.298414
 H        -0.365481         0.330122        -1.267421
 H        -0.566601        -0.576770         0.239398
 H         2.669697         1.999513        -0.062986
 H         3.800845         0.332038        -1.891628
 H         4.890153        -2.575112         0.446482
 H         3.929892        -1.505106         1.498596
 H         2.978833        -3.110433        -0.894567
 H         2.078951        -2.660886         0.560372
 H         1.878527        -1.281198        -1.942303
