19
Iteration:  4996
 C         0.025966         0.183746        -0.250053
 C         1.487340         0.048295        -0.196530
 O         2.172019         0.444563         0.917215
 C         2.587361         0.937506        -0.419169
 C         3.417006        -0.201253        -1.027628
 O         4.474388        -0.601743        -0.194110
 C         4.278372        -1.843241         0.423694
 C         2.720200        -2.272294         0.194207
 C         2.210851        -1.246141        -0.835213
 H        -0.140697        -0.121131        -1.317139
 H        -0.268183        -0.552156         0.402868
 H        -0.369124         1.160017        -0.075541
 H         2.645937         2.006263        -0.368084
 H         3.751764        -0.004746        -2.097166
 H         4.906836        -2.601603        -0.118554
 H         4.634028        -1.829341         1.526226
 H         2.720500        -3.339307        -0.199829
 H         2.197447        -2.281484         1.121044
 H         1.714303        -1.523726        -1.839623
