19
Iteration:  2704charge 0 multiplicity 1
 C        -0.058826         0.344740        -0.357202
 C         1.410813         0.040642        -0.197100
 O         2.047565         0.242984         1.095174
 C         2.660272         0.837974        -0.098672
 C         3.496102        -0.067273        -0.956854
 O         4.633136        -0.731028        -0.469536
 C         4.243089        -1.876293         0.272182
 C         2.713564        -2.173614         0.222850
 C         2.230527        -1.165238        -0.868842
 H        -0.222077         0.464232        -1.469153
 H        -0.556226        -0.538647        -0.098337
 H        -0.324131         1.277497         0.154784
 H         2.911386         1.881604         0.256531
 H         3.618828         0.357804        -2.002034
 H         4.748745        -2.755474        -0.259657
 H         4.622114        -1.920997         1.329773
 H         2.639422        -3.244402        -0.063046
 H         2.234873        -1.936614         1.168756
 H         1.951549        -1.404049        -1.950263
