19
Iteration:  3171
 C         0.026787         0.085334        -0.075054
 C         1.483341         0.026739        -0.197160
 O         2.281007         0.486623         0.881195
 C         2.655806         0.985467        -0.393110
 C         3.503008        -0.180292        -1.054515
 O         4.553800        -0.781157        -0.391297
 C         3.997425        -1.724455         0.672750
 C         2.674560        -2.283485         0.055047
 C         2.213460        -1.180730        -0.891611
 H        -0.483171        -0.060609        -1.087896
 H        -0.172048        -0.715157         0.632630
 H        -0.353889         1.090220         0.176383
 H         2.968640         2.048143        -0.513236
 H         3.750700         0.130046        -2.092935
 H         4.795667        -2.527004         0.869513
 H         3.731111        -0.982008         1.453795
 H         3.018288        -3.289425        -0.395484
 H         1.925763        -2.600492         0.816893
 H         1.679240        -1.453942        -1.829092
