19
Iteration:  2346
 C        -0.110936         0.093689        -0.326778
 C         1.383142         0.127256        -0.202438
 O         1.996196         0.450228         0.995889
 C         2.624622         1.006024        -0.159005
 C         3.525014        -0.128708        -0.789253
 O         4.683812        -0.702601        -0.047463
 C         4.269067        -2.183235        -0.124952
 C         2.747015        -2.162442         0.144284
 C         2.278918        -1.016853        -0.831661
 H        -0.462370        -0.622851        -1.066692
 H        -0.479524        -0.276358         0.586468
 H        -0.571070         1.017628        -0.668831
 H         2.724076         2.060339        -0.195196
 H         3.921808         0.258386        -1.721885
 H         4.372202        -2.401162        -1.180638
 H         4.923838        -2.621570         0.614640
 H         2.279928        -3.108909        -0.114035
 H         2.578135        -2.031582         1.193910
 H         2.094635        -1.388603        -1.855836
