19
Iteration:   842
 C         0.118162         0.488813        -0.438735
 C         1.398302        -0.044945        -0.057553
 O         2.190370         0.295162         1.142436
 C         2.593465         0.803938        -0.057504
 C         3.272011        -0.128383        -0.940567
 O         4.480141        -0.545475        -0.417248
 C         4.175820        -1.782161         0.414853
 C         2.955945        -2.468292        -0.092654
 C         2.192562        -1.277485        -0.818001
 H        -0.710913        -0.187176        -0.421985
 H         0.023344         1.486648        -0.034400
 H         0.083116         0.750043        -1.482344
 H         2.642463         1.862508        -0.081500
 H         3.230271         0.276656        -1.970085
 H         5.124964        -2.445160         0.238693
 H         4.011163        -1.529223         1.414512
 H         3.153637        -2.929693        -1.061328
 H         2.420045        -3.226462         0.665413
 H         1.680326        -1.486699        -1.702080
