19
Iteration:  1493charge 0 multiplicity 1
 C        -0.091564         0.514959        -0.363992
 C         1.343122        -0.041377        -0.157056
 O         2.153605         0.278226         1.032945
 C         2.561786         0.862278        -0.142255
 C         3.429119        -0.105731        -0.918051
 O         4.398162        -0.540654         0.001313
 C         4.426355        -2.005389        -0.009358
 C         2.925461        -2.360473         0.056099
 C         2.230483        -1.196129        -0.875173
 H        -0.652651        -0.428417        -0.274871
 H        -0.346026         1.292040         0.298193
 H        -0.111449         0.968062        -1.386417
 H         2.711079         1.927600        -0.206436
 H         3.912470         0.058139        -1.892194
 H         5.031795        -2.476359        -0.832076
 H         4.757660        -2.262821         0.942891
 H         2.607901        -3.411912        -0.193488
 H         2.442762        -2.259117         0.994480
 H         1.777737        -1.556866        -1.790882
