19
Iteration:  2281
 C        -0.093542         0.387455        -0.148880
 C         1.369412         0.012398        -0.150857
 O         2.167635         0.415698         0.971646
 C         2.573855         0.872488        -0.296463
 C         3.476166        -0.123277        -0.893719
 O         4.467665        -0.559735        -0.029312
 C         4.287439        -2.006458         0.259081
 C         2.871261        -2.482731        -0.258389
 C         2.276756        -1.123988        -0.813681
 H        -0.759661        -0.421734        -0.414913
 H        -0.350241         0.542964         0.850233
 H        -0.237335         1.271799        -0.780817
 H         2.465985         1.922313        -0.433657
 H         3.828874         0.196930        -1.900819
 H         5.170983        -2.513359        -0.306949
 H         4.122304        -2.153304         1.305794
 H         3.116477        -3.014662        -1.132837
 H         2.307960        -3.016394         0.510890
 H         1.895644        -1.267539        -1.852158
