19
Iteration:  3701charge 0 multiplicity 1
 C         0.001397         0.256572        -0.217495
 C         1.432436         0.061786        -0.136889
 O         2.144702         0.550432         0.992297
 C         2.503935         0.924257        -0.380394
 C         3.430941        -0.217938        -0.970817
 O         4.509933        -0.637919        -0.207680
 C         4.272039        -1.873593         0.446782
 C         2.851047        -2.465283        -0.120011
 C         2.224267        -1.162302        -0.765671
 H        -0.482529        -0.211751        -1.083405
 H        -0.494191        -0.255469         0.720448
 H        -0.144067         1.341531        -0.092334
 H         2.650023         1.916596        -0.868093
 H         3.817508        -0.148953        -2.018894
 H         5.138722        -2.540259         0.274531
 H         4.112705        -1.788735         1.547445
 H         3.078545        -3.281034        -0.927421
 H         2.245163        -2.932418         0.698288
 H         1.871811        -1.302540        -1.789981
