19
Iteration:   818charge 0 multiplicity 1
 C        -0.022035         0.400841        -0.353205
 C         1.391218        -0.035999         0.005048
 O         2.241048         0.229463         1.119861
 C         2.521242         0.865360        -0.219803
 C         3.382170        -0.129757        -0.977723
 O         4.554646        -0.665267        -0.292894
 C         4.234048        -1.775628         0.460157
 C         2.910874        -2.372199        -0.187021
 C         2.163894        -1.124609        -0.872418
 H        -0.896900        -0.038437         0.017674
 H         0.004264         1.513392        -0.267084
 H        -0.113198         0.302205        -1.407492
 H         2.429185         1.973737        -0.221386
 H         3.717765         0.152280        -2.006788
 H         5.148049        -2.488718         0.347226
 H         4.010088        -1.599239         1.495217
 H         3.007030        -3.133071        -1.023686
 H         2.292625        -2.771097         0.649902
 H         1.560219        -1.213674        -1.789625
