19
Iteration:  2017
 C        -0.007235         0.153612        -0.373097
 C         1.449930         0.000023        -0.173703
 O         2.034275         0.339332         1.127519
 C         2.513692         1.037644        -0.081482
 C         3.518729         0.020797        -0.854894
 O         4.606868        -0.671921        -0.161247
 C         4.248040        -2.065110         0.040516
 C         2.732881        -2.280126        -0.049144
 C         2.309825        -1.056971        -0.845434
 H        -0.624076        -0.581244         0.109635
 H        -0.323251         1.138882         0.063641
 H        -0.273758         0.047564        -1.411327
 H         2.508136         2.104466        -0.283668
 H         3.844489         0.433947        -1.859452
 H         4.709118        -2.723372        -0.739318
 H         4.643264        -2.367894         1.009123
 H         2.532221        -3.400130        -0.134436
 H         2.513768        -2.174973         1.014993
 H         1.884517        -1.202084        -1.895322
