19
Iteration:  2075charge 0 multiplicity 1
 C        -0.058864         0.191832        -0.359484
 C         1.404726         0.014965        -0.199521
 O         1.989921         0.353896         1.066360
 C         2.505586         0.966497        -0.129994
 C         3.533959        -0.058114        -0.826638
 O         4.558156        -0.680312        -0.069566
 C         4.327016        -2.102679        -0.118866
 C         2.783583        -2.184455         0.100198
 C         2.350362        -1.036227        -0.795420
 H        -0.491037        -0.807903        -0.148972
 H        -0.569088         0.945953         0.219591
 H        -0.175318         0.582065        -1.383271
 H         2.678152         2.089277        -0.084254
 H         3.895849         0.231130        -1.835583
 H         4.527369        -2.568557        -1.172640
 H         4.997598        -2.619970         0.564171
 H         2.432978        -3.138129        -0.245483
 H         2.533596        -1.859925         1.135911
 H         2.102292        -1.461686        -1.749610
