19
Iteration:  1159charge 0 multiplicity 1
 C         0.185442         0.634487        -0.491813
 C         1.435513        -0.048483        -0.082516
 O         1.937932         0.173140         1.182637
 C         2.523472         0.849757         0.004311
 C         3.220951        -0.168501        -0.842541
 O         4.547530        -0.694513        -0.561550
 C         4.320383        -1.688134         0.388423
 C         3.058413        -2.400613        -0.077200
 C         2.167433        -1.287272        -0.793803
 H        -0.712888        -0.081673        -0.567687
 H        -0.159393         1.501736         0.014770
 H         0.374446         0.882457        -1.568277
 H         2.689625         1.937133        -0.043228
 H         3.257418         0.261699        -1.859518
 H         5.205702        -2.340552         0.247875
 H         4.115667        -1.331640         1.409569
 H         3.125288        -3.242423        -0.730375
 H         2.515643        -2.768395         0.900547
 H         1.737397        -1.516176        -1.718644
