19
Iteration:   827
 C         0.000450         0.483470        -0.450540
 C         1.431007        -0.102247        -0.043091
 O         2.280404         0.233461         1.179335
 C         2.525262         0.870707        -0.158287
 C         3.314381        -0.152245        -0.994001
 O         4.515374        -0.582093        -0.320172
 C         4.201319        -1.786113         0.423617
 C         2.892466        -2.398374        -0.205570
 C         2.176449        -1.177666        -0.762011
 H        -0.822542        -0.062178         0.011140
 H        -0.029271         1.564371        -0.080015
 H        -0.005228         0.371976        -1.542077
 H         2.424903         1.994521        -0.233727
 H         3.666928         0.091251        -2.029813
 H         5.067192        -2.480328         0.353351
 H         4.103086        -1.501344         1.524035
 H         3.271207        -3.153109        -0.976989
 H         2.287253        -2.883602         0.517103
 H         1.671837        -1.549744        -1.724864
