19
Iteration:  3209charge 0 multiplicity 1
 C        -0.057947         0.466266        -0.269999
 C         1.370371        -0.044914        -0.098524
 O         2.131537         0.438247         0.953944
 C         2.572497         0.859058        -0.391859
 C         3.433548        -0.299920        -0.986923
 O         4.661851        -0.743992        -0.524041
 C         4.209578        -1.684431         0.638116
 C         2.893352        -2.345742         0.096383
 C         2.157413        -1.275600        -0.756509
 H        -0.164742         0.902977        -1.216990
 H        -1.030941        -0.126540        -0.397818
 H        -0.181622         1.165123         0.566220
 H         2.600754         1.933863        -0.238778
 H         3.598214        -0.095096        -2.055631
 H         5.015023        -2.392986         0.588719
 H         4.172583        -1.324315         1.663500
 H         3.081628        -3.222811        -0.575004
 H         2.399642        -2.798846         1.011435
 H         1.736153        -1.581829        -1.725228
