19
Iteration:  1978
 C        -0.032570         0.377541        -0.340103
 C         1.450243         0.032128        -0.117479
 O         2.089854         0.320967         1.126863
 C         2.575118         0.967510        -0.140699
 C         3.434703        -0.091286        -0.934313
 O         4.497797        -0.587056        -0.169976
 C         4.284683        -1.948285         0.227918
 C         2.953677        -2.478060        -0.236900
 C         2.162292        -1.170283        -0.772594
 H        -0.670439        -0.326027         0.275893
 H        -0.326463         1.416565        -0.222186
 H        -0.180670         0.165708        -1.428993
 H         2.625701         2.042861         0.156049
 H         3.692988         0.034609        -1.974461
 H         5.115047        -2.447876        -0.233692
 H         4.316378        -1.950345         1.334903
 H         2.993129        -3.041530        -1.099742
 H         2.344997        -2.820958         0.589340
 H         1.610677        -1.416290        -1.649159
