19
Iteration:  3964charge 0 multiplicity 1
 C        -0.027572         0.135135        -0.446299
 C         1.390773         0.058963        -0.148484
 O         2.189663         0.516536         0.982528
 C         2.530527         0.973425        -0.383143
 C         3.391804        -0.148695        -0.890826
 O         4.506390        -0.623136        -0.180733
 C         4.337407        -2.024323         0.173665
 C         2.788147        -2.283801         0.184843
 C         2.281391        -1.161165        -0.619691
 H        -0.056229         0.284351        -1.541304
 H        -0.588356        -0.780175        -0.126490
 H        -0.588997         0.891351         0.108109
 H         2.424543         2.015784        -0.664169
 H         3.736276         0.043346        -1.971620
 H         4.999009        -2.759534        -0.388137
 H         4.719580        -2.010798         1.188028
 H         2.531064        -3.317595        -0.178489
 H         2.399486        -2.210631         1.204017
 H         1.840914        -1.366020        -1.615510
