19
Iteration:  4851charge 0 multiplicity 1
 C        -0.112259         0.349305        -0.414724
 C         1.349895        -0.046960        -0.288924
 O         1.942228         0.420231         0.983902
 C         2.527913         0.877781        -0.315906
 C         3.433319        -0.182298        -0.914828
 O         4.641176        -0.702308        -0.328464
 C         4.450090        -2.029976         0.160309
 C         2.848561        -2.076517         0.473259
 C         2.294316        -1.229062        -0.719118
 H        -0.472200        -0.112951        -1.305027
 H        -0.681565         0.280499         0.402886
 H        -0.007229         1.424474        -0.628322
 H         2.580164         1.995590        -0.403957
 H         3.576059         0.104536        -2.000971
 H         4.934947        -2.768864        -0.519841
 H         5.040104        -2.094202         1.127413
 H         2.410440        -3.010003         0.341033
 H         2.609850        -1.619049         1.473034
 H         2.030872        -1.967883        -1.459444
