19
Iteration:   134
 C        -0.113340         0.171153        -0.110326
 C         1.367661         0.053944        -0.369554
 O         1.981168         0.221629         0.959251
 C         2.648502         0.921898         0.056977
 C         3.549681        -0.030870        -0.852254
 O         4.753175        -0.772687        -0.385152
 C         4.153247        -1.799685         0.452610
 C         2.731811        -2.249256        -0.139938
 C         2.336623        -1.068121        -1.066914
 H        -0.205518         1.113887         0.532578
 H        -0.742963         0.219987        -1.019416
 H        -0.436486        -0.684973         0.505355
 H         2.974679         1.973481         0.297205
 H         3.901986         0.513430        -1.727065
 H         4.820085        -2.624831         0.509048
 H         3.991188        -1.348275         1.493359
 H         2.745282        -3.144352        -0.725172
 H         2.004908        -2.311982         0.695102
 H         1.974306        -1.217799        -2.130256
