19
Iteration:  3180
 C        -0.028276         0.164077        -0.122641
 C         1.491785         0.047439        -0.267524
 O         2.239937         0.496764         0.925841
 C         2.685351         0.954674        -0.356241
 C         3.431588        -0.272531        -1.034503
 O         4.522311        -0.819385        -0.422986
 C         4.024581        -1.657979         0.651506
 C         2.769962        -2.322860         0.042366
 C         2.254823        -1.167824        -0.845600
 H        -0.534668         0.174142        -1.125206
 H        -0.436064        -0.661718         0.550532
 H        -0.218248         1.107219         0.471572
 H         2.717224         2.048333        -0.374491
 H         3.732209        -0.106408        -2.102660
 H         4.935608        -2.275700         0.814873
 H         3.795282        -1.234432         1.651507
 H         3.055019        -3.213659        -0.561859
 H         2.178333        -2.515162         0.928009
 H         1.888568        -1.432660        -1.843685
