19
Iteration:  3971charge 0 multiplicity 1
 C        -0.067642         0.135771        -0.446046
 C         1.409123         0.022421        -0.171846
 O         2.262111         0.492780         0.954687
 C         2.536769         0.970017        -0.353544
 C         3.387969        -0.166241        -0.916519
 O         4.531487        -0.585705        -0.158818
 C         4.311067        -1.993072         0.225029
 C         2.826878        -2.282860         0.205355
 C         2.210173        -1.161617        -0.670155
 H        -0.206221         0.410379        -1.474551
 H        -0.652113        -0.768119        -0.211563
 H        -0.411023         1.047428         0.050735
 H         2.263782         2.022572        -0.332339
 H         3.560916        -0.318544        -1.955213
 H         4.835309        -2.591122        -0.463520
 H         4.714678        -2.048490         1.267492
 H         2.601633        -3.223735        -0.286812
 H         2.280347        -2.318964         1.191903
 H         1.812743        -1.339051        -1.703962
