19
Iteration:   801
 C        -0.091390         0.309869        -0.188198
 C         1.416235        -0.025911        -0.172383
 O         2.116498         0.312933         1.038623
 C         2.608997         0.907516        -0.173318
 C         3.466394        -0.095355        -0.940492
 O         4.616743        -0.686946        -0.338523
 C         4.146511        -1.869551         0.456177
 C         2.811497        -2.310626        -0.157209
 C         2.289421        -1.101034        -0.912371
 H        -0.549604        -0.384989         0.599771
 H        -0.271589         1.377831        -0.039174
 H        -0.488672        -0.079004        -1.182586
 H         2.704997         1.972795        -0.145308
 H         3.833676         0.277788        -1.896716
 H         4.888090        -2.637723         0.394467
 H         4.068036        -1.497363         1.513714
 H         3.113774        -3.068226        -0.845345
 H         2.080099        -2.629689         0.620686
 H         1.982184        -1.458778        -1.893002
