19
Iteration:  4369charge 0 multiplicity 1
 C         0.021252         0.035131        -0.313947
 C         1.473934         0.019223        -0.203632
 O         2.193533         0.574746         1.023577
 C         2.586120         1.017133        -0.238464
 C         3.465711        -0.181551        -1.078369
 O         4.550357        -0.788745        -0.408473
 C         4.107481        -1.763422         0.522516
 C         2.827136        -2.300503         0.136344
 C         2.188440        -1.130649        -0.771247
 H        -0.349522         0.300141        -1.332084
 H        -0.328548        -0.970761        -0.147480
 H        -0.392366         0.874465         0.217934
 H         2.643930         2.032962        -0.622998
 H         3.590034        -0.126952        -2.155472
 H         4.930122        -2.492344         0.417085
 H         4.207081        -1.430265         1.542500
 H         2.717437        -3.239223        -0.458293
 H         2.257074        -2.564046         0.973519
 H         1.649654        -1.626720        -1.639127
