19
Iteration:  2031
 C        -0.023829         0.113045        -0.304279
 C         1.443728         0.064550        -0.259366
 O         1.922705         0.318355         1.038740
 C         2.620073         0.986609        -0.070395
 C         3.526624        -0.033110        -0.814068
 O         4.573063        -0.703507        -0.151817
 C         4.277595        -2.096757        -0.021905
 C         2.773454        -2.154633         0.146773
 C         2.337547        -1.008434        -0.927707
 H        -0.333823        -0.836306         0.206749
 H        -0.366384         0.975640         0.274797
 H        -0.455492         0.223802        -1.295510
 H         2.506352         2.108481         0.025379
 H         3.948272         0.475648        -1.694523
 H         4.667377        -2.634301        -0.998610
 H         4.931863        -2.517805         0.748023
 H         2.341905        -2.987604        -0.370578
 H         2.207783        -1.993193         1.071601
 H         2.018107        -1.436498        -1.862175
