19
Iteration:  4104charge 0 multiplicity 1
 C        -0.032965         0.186750        -0.298300
 C         1.395501        -0.012667        -0.117530
 O         2.134108         0.496740         1.001172
 C         2.574179         0.897531        -0.303448
 C         3.478237        -0.219083        -1.010111
 O         4.628121        -0.784432        -0.441110
 C         4.172352        -1.689180         0.579717
 C         2.880347        -2.277910         0.050023
 C         2.198422        -1.196865        -0.818673
 H        -0.265152         0.091880        -1.363611
 H        -0.668181        -0.525006         0.298125
 H        -0.442305         1.148881         0.028638
 H         2.685965         1.971438        -0.553217
 H         3.808137         0.220795        -1.969299
 H         4.888707        -2.538284         0.821065
 H         3.967889        -1.120635         1.564577
 H         3.084212        -3.188292        -0.617139
 H         2.140510        -2.670595         0.816751
 H         1.481715        -1.382338        -1.695933
