19
Iteration:  2054charge 0 multiplicity 1
 C        -0.192993         0.086515        -0.345198
 C         1.381191         0.140804        -0.342443
 O         1.980433         0.289043         1.001671
 C         2.703572         0.956505        -0.050969
 C         3.526989        -0.053481        -0.769891
 O         4.688632        -0.678970        -0.049171
 C         4.250846        -2.068766        -0.148357
 C         2.780180        -2.153819         0.153131
 C         2.259699        -1.045789        -0.885723
 H        -0.441692        -0.893906         0.141159
 H        -0.377219         0.852384         0.385185
 H        -0.783297         0.462263        -1.197725
 H         2.746802         2.095382         0.020175
 H         3.943625         0.404659        -1.665624
 H         4.730393        -2.549516        -1.147191
 H         4.693526        -2.695448         0.666430
 H         2.361617        -3.110369         0.274063
 H         2.644753        -1.521897         1.077400
 H         2.124526        -1.479058        -1.839227
