19
Iteration:  4483
 C        -0.032803         0.127531        -0.408037
 C         1.442021         0.047035        -0.164134
 O         2.104880         0.569494         0.944408
 C         2.574476         0.992316        -0.395126
 C         3.464084        -0.132947        -0.894305
 O         4.556055        -0.606633        -0.159985
 C         4.330806        -1.993969         0.083314
 C         2.744602        -2.235404         0.293700
 C         2.198135        -1.292837        -0.652427
 H        -0.334637        -0.226256        -1.365083
 H        -0.423134        -0.470091         0.352267
 H        -0.462964         1.136532        -0.319701
 H         2.735777         2.067364        -0.594269
 H         3.737175        -0.336839        -1.978524
 H         4.690032        -2.513790        -0.801555
 H         4.899288        -2.353035         0.997458
 H         2.360579        -3.257407         0.177002
 H         2.650116        -2.198012         1.459908
 H         1.778808        -1.710370        -1.552950
