19
Iteration:  3433charge 0 multiplicity 1
 C         0.044319         0.022882        -0.046417
 C         1.537529         0.015359        -0.125571
 O         2.264878         0.679552         0.969130
 C         2.655259         0.937161        -0.456905
 C         3.421164        -0.222459        -1.023391
 O         4.568847        -0.803178        -0.341317
 C         3.955505        -1.693305         0.620288
 C         2.743522        -2.381860        -0.078182
 C         2.224389        -1.148323        -0.901179
 H        -0.226612         0.272979        -1.136356
 H        -0.256700        -0.983719         0.259669
 H        -0.628050         0.678341         0.546189
 H         2.656590         2.033577        -0.600136
 H         3.742236         0.029423        -2.076875
 H         4.759708        -2.382778         0.892468
 H         3.689929        -1.210990         1.524283
 H         2.981995        -3.131126        -0.835286
 H         2.065204        -2.645753         0.703971
 H         1.767870        -1.360293        -1.914808
