19
Iteration:  4440
 C        -0.033510         0.392821        -0.197397
 C         1.401325        -0.030729        -0.291034
 O         2.049953         0.354794         0.880164
 C         2.525850         0.884688        -0.404921
 C         3.393626        -0.241642        -0.971725
 O         4.616705        -0.543228        -0.148665
 C         4.319401        -1.893219         0.228572
 C         2.817098        -2.253484         0.224839
 C         2.310961        -1.279334        -0.780238
 H        -0.620541        -0.056203        -0.959985
 H        -0.447543        -0.010366         0.671986
 H        -0.136806         1.427308        -0.465572
 H         2.386247         1.973414        -0.368916
 H         3.762209         0.102867        -1.970129
 H         4.909419        -2.658243        -0.242798
 H         4.471357        -2.076636         1.325760
 H         2.635639        -3.320572         0.318137
 H         2.413257        -1.866385         1.253357
 H         2.006915        -1.778400        -1.693163
