19
Iteration:  2853charge 0 multiplicity 1
 C        -0.002685         0.047121         0.086868
 C         1.535675         0.061537        -0.277908
 O         2.390823         0.361189         0.882706
 C         2.623262         1.015465        -0.463818
 C         3.557965        -0.102812        -1.074097
 O         4.523865        -0.724929        -0.160707
 C         3.921000        -1.744048         0.604439
 C         2.616578        -2.300914        -0.083927
 C         2.231062        -1.131021        -0.988900
 H        -0.088195         0.550672         1.022506
 H        -0.697611         0.397934        -0.766604
 H        -0.283706        -1.014789         0.227626
 H         2.459728         2.140320        -0.460633
 H         4.036301         0.242301        -1.978203
 H         4.713347        -2.518073         0.744108
 H         3.740948        -1.263640         1.550951
 H         2.945459        -3.147929        -0.812057
 H         1.735450        -2.633240         0.529783
 H         1.882950        -1.406450        -1.973170
