19
Iteration:  4132
 C        -0.015337         0.362909        -0.154141
 C         1.371939        -0.048330        -0.323918
 O         2.084549         0.318826         0.875135
 C         2.597186         0.905719        -0.279271
 C         3.443850        -0.219729        -1.036237
 O         4.579297        -0.718215        -0.434119
 C         4.170935        -1.624110         0.674034
 C         2.954419        -2.365725         0.132724
 C         2.244376        -1.256150        -0.857966
 H        -0.538821         0.732954        -1.049891
 H        -0.690633        -0.388020         0.247236
 H        -0.033624         1.248869         0.506196
 H         2.829088         1.974298        -0.272471
 H         3.653237         0.183408        -2.051877
 H         4.969023        -2.306874         0.918974
 H         3.708213        -0.987597         1.358651
 H         3.144803        -3.217957        -0.466996
 H         2.252089        -2.687692         0.910871
 H         1.742764        -1.557100        -1.757469
