19
Iteration:  4866
 C        -0.021799         0.321989        -0.530642
 C         1.394253        -0.000749        -0.268612
 O         1.992433         0.552765         0.999612
 C         2.555057         0.908612        -0.206683
 C         3.406431        -0.284427        -0.941580
 O         4.557550        -0.640224        -0.289248
 C         4.378163        -2.007300         0.151539
 C         2.913882        -2.198646         0.386915
 C         2.251308        -1.264920        -0.643118
 H        -0.626783        -0.286992        -1.305625
 H        -0.461172        -0.243422         0.409001
 H        -0.289537         1.369217        -0.568910
 H         2.485540         1.937176        -0.607417
 H         3.561331        -0.011816        -2.012944
 H         4.623365        -2.685394        -0.652126
 H         5.024523        -2.092699         1.069826
 H         2.641852        -3.306325         0.494470
 H         2.748025        -1.688008         1.330393
 H         1.826466        -1.612038        -1.617450
