19
Iteration:   685
 C        -0.152681         0.453424        -0.061093
 C         1.318416        -0.029873        -0.175989
 O         2.120369         0.432323         0.972320
 C         2.563961         0.882177        -0.326812
 C         3.422993        -0.135560        -0.854057
 O         4.671802        -0.701038        -0.239253
 C         4.142297        -1.881761         0.515165
 C         3.000362        -2.501350        -0.253694
 C         2.255715        -1.179325        -0.948608
 H        -0.752181        -0.188409         0.462675
 H         0.011308         1.359145         0.484117
 H        -0.673190         0.678638        -0.971997
 H         2.609722         1.955424        -0.530476
 H         3.813982         0.200329        -1.839378
 H         4.966554        -2.627509         0.611835
 H         3.885057        -1.528757         1.495212
 H         3.462387        -2.953839        -1.188144
 H         2.358278        -3.099404         0.321406
 H         1.894736        -1.125666        -2.035949
