19
Iteration:   188charge 0 multiplicity 1
 C         0.080136         0.188283        -0.318026
 C         1.458775        -0.086384         0.009875
 O         2.364790         0.399014         1.109033
 C         2.651535         0.904216        -0.177446
 C         3.351179        -0.163031        -0.870642
 O         4.387233        -0.542105        -0.108843
 C         3.993665        -1.785920         0.401848
 C         2.887541        -2.383492        -0.479829
 C         2.193061        -1.164929        -0.893167
 H        -0.320178         1.031612         0.293961
 H         0.022696         0.463137        -1.342694
 H        -0.531355        -0.635926        -0.147733
 H         2.846126         1.968815        -0.462153
 H         3.704403         0.129949        -1.872567
 H         4.850009        -2.424618         0.390145
 H         3.662355        -1.783416         1.499152
 H         3.200889        -2.796559        -1.328585
 H         2.333229        -3.053324         0.094294
 H         1.673260        -1.044212        -1.905722
