19
Iteration:  4065
 C         0.035344         0.055809        -0.326268
 C         1.451620         0.003139        -0.200074
 O         2.179231         0.530646         1.014728
 C         2.628198         0.944662        -0.288122
 C         3.425255        -0.128482        -1.012126
 O         4.528358        -0.724680        -0.320129
 C         4.216504        -1.865968         0.508740
 C         2.759788        -2.210464         0.122173
 C         2.144884        -1.126103        -0.856432
 H        -0.266303        -0.607014        -1.189072
 H        -0.305143        -0.546830         0.500929
 H        -0.464325         1.018580        -0.453043
 H         2.692048         2.034884        -0.509464
 H         3.750706         0.188174        -2.032946
 H         4.920850        -2.553388         0.072080
 H         4.359162        -1.598530         1.518708
 H         2.833005        -3.152276        -0.419164
 H         2.293546        -2.479594         1.037405
 H         1.788655        -1.592367        -1.736808
