19
Iteration:   620charge 0 multiplicity 1
 C        -0.042853         0.192213        -0.510593
 C         1.500162         0.040891        -0.105799
 O         2.309350         0.140446         1.197322
 C         2.613571         0.948401        -0.021092
 C         3.397654        -0.036104        -0.961643
 O         4.556883        -0.730931        -0.459993
 C         4.085493        -1.836976         0.419568
 C         2.741773        -2.237511         0.005589
 C         2.250163        -0.990518        -0.913693
 H        -0.735392         0.001772         0.263636
 H        -0.273490         1.203456        -0.817795
 H        -0.230060        -0.469575        -1.368974
 H         2.592313         2.005445         0.152353
 H         3.542042         0.466716        -1.942307
 H         4.874675        -2.668887         0.322804
 H         4.076297        -1.503288         1.392364
 H         2.760104        -3.279213        -0.487586
 H         2.132425        -2.316902         0.872517
 H         1.722938        -1.294291        -1.853010
