19
Iteration:  2672charge 0 multiplicity 1
 C        -0.029093         0.153210        -0.319640
 C         1.391216         0.117516        -0.203595
 O         1.995398         0.326177         1.059035
 C         2.663265         0.973107        -0.044094
 C         3.567536        -0.029740        -0.849906
 O         4.663457        -0.887384        -0.510380
 C         4.228526        -1.963020         0.278830
 C         2.688319        -2.152731         0.078424
 C         2.245374        -1.034166        -0.870102
 H        -0.355457        -0.548459        -1.122727
 H        -0.389991        -0.256174         0.568710
 H        -0.528638         1.141201        -0.415897
 H         2.923623         2.033062         0.240425
 H         3.679405         0.346339        -1.914657
 H         4.898141        -2.781795        -0.105850
 H         4.462170        -1.796974         1.376190
 H         2.315601        -3.192887        -0.082308
 H         2.294370        -1.937340         1.074553
 H         1.961802        -1.133203        -1.967286
