19
Iteration:  2011charge 0 multiplicity 1
 C        -0.023043         0.201200        -0.376389
 C         1.422676        -0.028205        -0.152214
 O         2.093889         0.371672         1.148120
 C         2.493438         0.994347        -0.099440
 C         3.503132        -0.019935        -0.827100
 O         4.602091        -0.634217        -0.171350
 C         4.247684        -2.058263         0.041337
 C         2.747746        -2.296837        -0.088033
 C         2.313041        -1.082354        -0.838590
 H        -0.661499        -0.619381         0.078047
 H        -0.404862         1.186123        -0.148590
 H        -0.136113         0.018610        -1.484775
 H         2.504549         2.121909        -0.104230
 H         3.709563         0.251113        -1.855616
 H         5.004868        -2.650011        -0.564597
 H         4.623560        -2.335367         1.049330
 H         2.391081        -3.275676        -0.342700
 H         2.313586        -2.187617         0.941303
 H         1.928368        -1.155749        -1.822900
