19
Iteration:  1606charge 0 multiplicity 1
 C        -0.079620         0.196405        -0.239997
 C         1.432522         0.045728        -0.252288
 O         2.119707         0.398652         1.039920
 C         2.611963         0.948261        -0.154813
 C         3.499410        -0.071472        -0.900762
 O         4.507767        -0.677074        -0.063087
 C         4.300182        -2.026419         0.152772
 C         2.786311        -2.242800        -0.069557
 C         2.261502        -1.123310        -0.905305
 H        -0.569705        -0.093191         0.690552
 H        -0.366849         1.255523        -0.520522
 H        -0.544926        -0.327574        -1.021106
 H         2.750778         2.004553        -0.494253
 H         3.930311         0.300280        -1.856836
 H         4.950623        -2.619874        -0.530600
 H         4.445176        -2.252035         1.285841
 H         2.529374        -3.197432        -0.613963
 H         2.243424        -2.298652         0.959299
 H         1.710213        -1.361528        -1.802397
