19
Iteration:  2889charge 0 multiplicity 1
 C        -0.029905         0.290921        -0.064337
 C         1.451090         0.029383        -0.130005
 O         2.217867         0.532060         0.972004
 C         2.579310         0.972094        -0.438866
 C         3.459930        -0.171966        -1.055104
 O         4.472114        -0.734935        -0.205520
 C         4.167225        -1.847192         0.546648
 C         2.827673        -2.412689        -0.137534
 C         2.265920        -1.204986        -0.883109
 H        -0.447918         0.406311         1.016267
 H        -0.298476         1.240706        -0.496930
 H        -0.596743        -0.565875        -0.530679
 H         2.582931         1.983192        -0.764475
 H         3.963487        -0.027050        -2.018133
 H         4.878227        -2.685633         0.390182
 H         4.014038        -1.642938         1.594676
 H         3.214888        -3.122688        -0.938460
 H         2.126343        -2.945454         0.515075
 H         1.734122        -1.585708        -1.806857
