19
Iteration:   923charge 0 multiplicity 1
 C        -0.017827         0.080609        -0.306761
 C         1.496386         0.036854        -0.179788
 O         2.163678         0.196249         1.080170
 C         2.685474         0.915572        -0.097269
 C         3.527249        -0.026927        -0.969156
 O         4.637941        -0.674669        -0.398646
 C         4.117534        -1.873906         0.328621
 C         2.570143        -2.125423         0.113059
 C         2.213322        -1.034312        -0.958124
 H        -0.427537        -0.774670         0.286297
 H        -0.377587         0.950260         0.277919
 H        -0.253554         0.126297        -1.404624
 H         2.962983         1.988778         0.064337
 H         3.894790         0.385783        -1.919843
 H         4.560357        -2.716120        -0.079256
 H         4.511454        -1.813060         1.378459
 H         2.550616        -3.087625        -0.413056
 H         1.890781        -2.094308         0.908509
 H         1.623266        -1.312879        -1.896344
