19
Iteration:  3893
 C        -0.090386         0.211387        -0.451764
 C         1.398047        -0.032143        -0.283157
 O         2.058273         0.447072         1.045896
 C         2.535629         0.914809        -0.221688
 C         3.487941        -0.202897        -0.876288
 O         4.571392        -0.649920        -0.131015
 C         4.326440        -2.026693        -0.035932
 C         2.813421        -2.101538         0.341780
 C         2.304180        -1.145513        -0.743899
 H        -0.441289        -0.383669        -1.307011
 H        -0.637617        -0.133379         0.415386
 H        -0.356446         1.278802        -0.529280
 H         2.519481         1.997484        -0.592966
 H         3.717818        -0.039533        -1.922832
 H         4.643598        -2.387862        -0.992092
 H         5.005471        -2.529364         0.686015
 H         2.203962        -2.990165         0.466388
 H         2.836585        -1.562591         1.321074
 H         1.992952        -1.740647        -1.644986
