19
Iteration:  1636charge 0 multiplicity 1
 C        -0.082197         0.512463        -0.176419
 C         1.333940         0.033738        -0.272556
 O         2.036659         0.220900         0.933829
 C         2.495226         0.916340        -0.220503
 C         3.479024        -0.078438        -0.893886
 O         4.595980        -0.561858        -0.041879
 C         4.363521        -1.983323         0.177117
 C         2.835615        -2.355845         0.008343
 C         2.304726        -1.278338        -0.900399
 H        -0.601079        -0.077744         0.624522
 H        -0.126410         1.631932        -0.010776
 H        -0.476563         0.348561        -1.177352
 H         2.699327         2.020698        -0.242123
 H         3.848348         0.230329        -1.883264
 H         4.970086        -2.469577        -0.655398
 H         4.799429        -2.296830         1.088453
 H         2.747066        -3.329838        -0.479343
 H         2.282357        -2.572562         0.884191
 H         1.835939        -1.561329        -1.797581
