19
Iteration:  4812charge 0 multiplicity 1
 C        -0.001553         0.255492        -0.415206
 C         1.380966         0.005070        -0.307491
 O         2.038363         0.465287         0.974851
 C         2.570945         0.879255        -0.247365
 C         3.390051        -0.209042        -0.950791
 O         4.556025        -0.670811        -0.348639
 C         4.383645        -1.954350         0.281083
 C         2.827654        -2.099499         0.344918
 C         2.265981        -1.256970        -0.716757
 H        -0.478141        -0.091602        -1.426799
 H        -0.692737        -0.287530         0.443891
 H        -0.274838         1.325798        -0.383135
 H         2.937169         1.933549        -0.274566
 H         3.625628         0.151367        -1.957808
 H         4.704835        -2.923342        -0.175737
 H         5.042711        -1.734609         1.144825
 H         2.406038        -3.177876         0.232056
 H         2.467780        -1.820297         1.334904
 H         1.800570        -1.854210        -1.546111
