19
Iteration:  3917charge 0 multiplicity 1
 C        -0.128377         0.162021        -0.372194
 C         1.365061         0.040881        -0.306056
 O         1.920116         0.533259         0.924085
 C         2.588364         1.007055        -0.327176
 C         3.501371        -0.039970        -0.788049
 O         4.661648        -0.735400        -0.189530
 C         4.329998        -2.150059         0.014400
 C         2.877580        -2.184801         0.376651
 C         2.305853        -1.153422        -0.711025
 H        -0.473720        -0.220968        -1.296664
 H        -0.533321        -0.501329         0.440749
 H        -0.541509         1.102264        -0.040105
 H         2.550445         2.109471        -0.217359
 H         3.791160         0.030416        -1.831584
 H         4.689575        -2.593491        -0.895427
 H         5.030673        -2.592689         0.783635
 H         2.218167        -3.009811         0.129041
 H         2.777076        -1.973066         1.494838
 H         1.966786        -1.619052        -1.681813
