19
Iteration:   791
 C        -0.088813         0.166063        -0.145641
 C         1.471431         0.046685        -0.375139
 O         2.074437         0.338710         1.064059
 C         2.653871         0.965484        -0.125470
 C         3.508980        -0.088480        -0.923091
 O         4.632128        -0.745075        -0.342350
 C         4.114917        -1.806814         0.454682
 C         2.769431        -2.326915        -0.136011
 C         2.336230        -1.101695        -0.916611
 H        -0.350099        -0.388865         0.843031
 H        -0.220575         1.211499         0.201830
 H        -0.940550         0.045201        -0.910361
 H         2.618372         2.039055        -0.195872
 H         3.731479         0.253935        -1.943112
 H         4.816871        -2.567343         0.317445
 H         4.009335        -1.587458         1.584020
 H         2.803016        -3.178373        -0.810925
 H         1.994485        -2.612852         0.580343
 H         1.911438        -1.298323        -1.935718
