19
Iteration:  4946
 C        -0.111331         0.136019        -0.208156
 C         1.413222         0.101926        -0.333526
 O         2.056506         0.572571         0.845402
 C         2.599738         0.990611        -0.583074
 C         3.486037        -0.235768        -0.933672
 O         4.544737        -0.617076         0.044176
 C         4.269257        -2.072618         0.171279
 C         2.833288        -2.190469         0.261645
 C         2.290678        -1.203638        -0.710751
 H        -0.670105         0.457419        -1.058353
 H        -0.402248        -0.927771         0.272163
 H        -0.261897         0.755035         0.750604
 H         2.697304         2.037126        -0.861898
 H         3.881719        -0.095183        -1.934144
 H         4.679446        -2.617923        -0.673895
 H         4.728951        -2.541005         0.999338
 H         2.618567        -3.210030        -0.093981
 H         2.574009        -2.130459         1.350956
 H         2.022971        -1.643050        -1.671231
