19
Iteration:  2874charge 0 multiplicity 1
 C         0.028253         0.174063         0.038913
 C         1.485952        -0.064341        -0.184680
 O         2.259044         0.535773         0.903865
 C         2.599865         0.878761        -0.435312
 C         3.488031        -0.224323        -1.002177
 O         4.534799        -0.633017        -0.194234
 C         3.972863        -1.859103         0.554914
 C         2.742265        -2.353204        -0.153111
 C         2.283984        -1.126973        -0.973879
 H        -0.062967         0.462648         1.043314
 H        -0.288871         1.018126        -0.684815
 H        -0.643564        -0.658748        -0.167415
 H         2.625266         2.014981        -0.475635
 H         3.811901         0.023084        -2.016349
 H         4.902690        -2.419596         0.547774
 H         3.777164        -1.468718         1.559850
 H         2.973230        -3.255123        -0.787013
 H         2.003472        -2.453070         0.714958
 H         1.854246        -1.136570        -1.954671
