19
Iteration:   811
 C        -0.013499         0.350068        -0.261435
 C         1.354119        -0.015589        -0.015946
 O         2.175472         0.264325         1.040921
 C         2.540213         0.876866        -0.207901
 C         3.465277        -0.118713        -0.961270
 O         4.579605        -0.680845        -0.308966
 C         4.208463        -1.843822         0.460685
 C         2.878925        -2.309473        -0.160499
 C         2.218056        -1.111707        -0.932947
 H        -0.882741        -0.073043         0.344875
 H        -0.283500         1.399692        -0.183375
 H        -0.151765         0.129047        -1.358793
 H         2.638808         1.934952        -0.195281
 H         3.644455         0.316490        -1.936264
 H         5.052393        -2.537652         0.450096
 H         4.004112        -1.558787         1.513207
 H         2.945753        -3.107952        -0.860158
 H         2.273347        -2.882188         0.629408
 H         1.727188        -1.224766        -1.883916
