19
Iteration:  3390
 C        -0.013104         0.302264         0.063437
 C         1.413495         0.044982        -0.164235
 O         2.268959         0.561810         0.784012
 C         2.502985         0.945907        -0.571313
 C         3.423745        -0.238681        -0.957065
 O         4.427220        -0.649315        -0.054360
 C         4.144398        -1.911602         0.542303
 C         2.902142        -2.386287        -0.176365
 C         2.270064        -1.226149        -0.895037
 H        -0.546314         0.433232        -0.944989
 H        -0.328584        -0.548844         0.660057
 H        -0.187387         1.156033         0.717454
 H         2.705455         1.959315        -0.945399
 H         3.950498        -0.153324        -1.940288
 H         4.878318        -2.712087         0.463252
 H         4.033027        -1.792278         1.576909
 H         3.347864        -3.121903        -0.809363
 H         2.194676        -2.778848         0.518802
 H         1.948693        -1.726666        -1.799145
