19
Iteration:   574
 C        -0.094397         0.202737        -0.202708
 C         1.428150         0.092159        -0.299068
 O         1.903023         0.309171         1.067541
 C         2.625936         0.939226        -0.000701
 C         3.579078        -0.066755        -0.902834
 O         4.703986        -0.832992        -0.475066
 C         4.241414        -1.899844         0.407746
 C         2.745443        -2.239290        -0.056808
 C         2.294800        -1.034202        -0.947083
 H        -0.340924        -0.507741         0.531539
 H        -0.438439         1.142513         0.093678
 H        -0.482487        -0.051405        -1.172792
 H         2.809715         1.999134         0.202040
 H         3.840773         0.548103        -1.786009
 H         4.960048        -2.650387         0.318672
 H         4.209190        -1.513431         1.438483
 H         2.620594        -3.229888        -0.544809
 H         2.026898        -2.276261         0.759746
 H         2.100719        -1.344472        -2.034495
