19
Iteration:  1111charge 0 multiplicity 1
 C        -0.016147         0.276280        -0.315559
 C         1.436393         0.047641        -0.172711
 O         2.034989         0.084759         1.070511
 C         2.699656         0.845932        -0.038247
 C         3.475809        -0.073560        -0.959075
 O         4.569709        -0.818712        -0.524066
 C         4.211457        -1.681302         0.467992
 C         2.757185        -2.189587         0.026716
 C         2.253378        -1.027771        -0.944909
 H        -0.619271        -0.614917        -0.045228
 H        -0.361198         0.987223         0.517876
 H        -0.343797         0.660779        -1.308570
 H         2.802996         1.913022         0.093913
 H         3.773279         0.349009        -1.924358
 H         5.050602        -2.397057         0.656558
 H         4.058192        -1.164538         1.518300
 H         2.824409        -3.117369        -0.580146
 H         2.161445        -2.319801         0.865003
 H         2.028205        -1.270818        -2.039077
