19
Iteration:   162charge 0 multiplicity 1
 C        -0.005849         0.244823        -0.205756
 C         1.428893         0.009028        -0.131572
 O         2.190574         0.230646         1.090222
 C         2.523654         0.931558        -0.164281
 C         3.519857        -0.017442        -0.987900
 O         4.545566        -0.664208        -0.268322
 C         4.034558        -1.878413         0.519594
 C         2.855105        -2.348258        -0.291492
 C         2.330142        -1.052878        -0.944797
 H        -0.331211         0.974133         0.495349
 H        -0.355828         0.449755        -1.210217
 H        -0.446103        -0.735517         0.080496
 H         2.453649         2.015498        -0.196820
 H         3.949222         0.411625        -1.925992
 H         4.926087        -2.599281         0.526724
 H         3.780060        -1.626815         1.513109
 H         3.090741        -3.023764        -1.178828
 H         2.037018        -2.737738         0.320967
 H         1.750237        -1.185943        -1.820649
