19
Iteration:  3708charge 0 multiplicity 1
 C        -0.046760         0.226890        -0.134552
 C         1.396257        -0.003975        -0.157065
 O         2.132342         0.565818         0.958711
 C         2.557197         0.888938        -0.394371
 C         3.488748        -0.232949        -0.964795
 O         4.585283        -0.674966        -0.230216
 C         4.217656        -1.852175         0.479834
 C         2.821635        -2.366953        -0.161671
 C         2.205036        -1.175623        -0.771867
 H        -0.439444        -0.018903        -1.129775
 H        -0.555425        -0.161717         0.725223
 H        -0.189081         1.322788        -0.063220
 H         2.479935         1.979380        -0.560477
 H         3.848007         0.018759        -1.993509
 H         5.087400        -2.523698         0.423310
 H         4.227102        -1.561926         1.545718
 H         3.215612        -3.164019        -0.715726
 H         2.109385        -2.912305         0.475588
 H         1.919445        -1.368702        -1.832417
