19
Iteration:  1143
 C         0.039199         0.568819        -0.550070
 C         1.325492        -0.099699        -0.074279
 O         2.050793         0.167658         1.214847
 C         2.645377         0.739505         0.058346
 C         3.341311        -0.110273        -0.986385
 O         4.571493        -0.682220        -0.607113
 C         4.252451        -1.669227         0.465796
 C         2.914792        -2.374453        -0.022862
 C         2.226402        -1.194084        -0.788636
 H        -0.831314        -0.063008        -0.611846
 H        -0.052590         1.335751         0.283404
 H         0.153663         1.151316        -1.475511
 H         2.605555         1.816830         0.058814
 H         3.443725         0.354806        -1.975407
 H         5.162169        -2.294398         0.548632
 H         3.961550        -1.010511         1.334590
 H         3.275577        -3.183974        -0.730587
 H         2.407178        -2.947696         0.682976
 H         1.836550        -1.599775        -1.782912
