19
Iteration:  3262
 C        -0.026649         0.353637        -0.503445
 C         1.370913         0.011791        -0.116980
 O         2.073134         0.304875         1.055242
 C         2.642809         0.824023        -0.179401
 C         3.388615        -0.236523        -0.974040
 O         4.627227        -0.773302        -0.623828
 C         4.337162        -1.772901         0.374599
 C         2.756613        -2.136851         0.303196
 C         2.259536        -1.171065        -0.665816
 H        -0.141956         0.738085        -1.515045
 H        -0.698908        -0.508051        -0.419582
 H        -0.463032         1.139090         0.087423
 H         2.698732         1.914451        -0.104511
 H         3.455498         0.201998        -1.943877
 H         5.088533        -2.570228         0.203996
 H         4.289130        -1.376915         1.402791
 H         2.533171        -3.181788        -0.034443
 H         2.412545        -2.087822         1.374859
 H         1.739988        -1.579126        -1.543680
