19
Iteration:  2759
 C        -0.092346         0.494491        -0.288944
 C         1.408184         0.081858        -0.127150
 O         2.112779         0.461500         1.014157
 C         2.629292         0.843614        -0.242071
 C         3.326286        -0.259567        -0.943930
 O         4.610297        -0.612546        -0.293271
 C         4.327319        -1.911823         0.349088
 C         2.872736        -2.475850        -0.099270
 C         2.213704        -1.240603        -0.717749
 H        -0.168206         1.406951        -0.955701
 H        -0.539397        -0.349562        -0.661788
 H        -0.591242         0.749930         0.675895
 H         2.691176         1.933159        -0.386301
 H         3.508230        -0.050462        -2.027214
 H         5.218598        -2.584846         0.192598
 H         4.017060        -1.801287         1.398582
 H         2.819074        -3.254859        -0.854482
 H         2.439644        -2.773709         0.866599
 H         1.680450        -1.572184        -1.663335
