19
Iteration:  1480
 C        -0.007544         0.434646        -0.451265
 C         1.402003         0.049170        -0.142138
 O         2.070724         0.259085         1.101300
 C         2.606063         0.912999        -0.150321
 C         3.333889        -0.205966        -0.922865
 O         4.417130        -0.598761        -0.081566
 C         4.418461        -1.953561         0.061357
 C         2.949111        -2.353593         0.030066
 C         2.184048        -1.139133        -0.771686
 H        -0.943854        -0.176790        -0.527042
 H        -0.268332         1.153232         0.349282
 H        -0.024938         0.972404        -1.493338
 H         2.782894         1.960404        -0.000939
 H         3.543683         0.129279        -1.956006
 H         4.914535        -2.411865        -0.892590
 H         5.095998        -2.279828         0.821345
 H         2.867627        -3.309750        -0.482688
 H         2.700613        -2.400754         1.099774
 H         1.747486        -1.470448        -1.777985
