19
Iteration:  2348
 C        -0.106937         0.095652        -0.336261
 C         1.383651         0.142332        -0.203755
 O         1.980199         0.454792         1.010438
 C         2.619008         0.998388        -0.154937
 C         3.545378        -0.122304        -0.772746
 O         4.683218        -0.705222        -0.069016
 C         4.263487        -2.194404        -0.131184
 C         2.754820        -2.173600         0.154298
 C         2.278002        -1.022865        -0.839135
 H        -0.398870        -0.634798        -1.053508
 H        -0.478418        -0.354637         0.562031
 H        -0.610582         1.015417        -0.637768
 H         2.717287         2.063066        -0.274713
 H         3.967270         0.302731        -1.700291
 H         4.350235        -2.431633        -1.217727
 H         4.926093        -2.567015         0.661107
 H         2.220590        -3.049622        -0.117003
 H         2.624119        -1.963715         1.265871
 H         2.082198        -1.375998        -1.857407
