19
Iteration:  3847
 C        -0.105621         0.343099        -0.468780
 C         1.349718         0.003533        -0.179511
 O         2.082094         0.478486         1.015001
 C         2.489724         0.920655        -0.297287
 C         3.437042        -0.176999        -0.893839
 O         4.573918        -0.620545        -0.276388
 C         4.429869        -2.053989         0.194556
 C         2.886682        -2.296899         0.168760
 C         2.235558        -1.172499        -0.595351
 H        -0.448291        -0.038705        -1.477973
 H        -0.653143        -0.165483         0.318485
 H        -0.360848         1.419247        -0.275512
 H         2.616851         2.008849        -0.491570
 H         3.434242         0.178158        -1.907781
 H         5.034714        -2.814113        -0.281129
 H         4.797136        -1.969040         1.228662
 H         2.847936        -3.316659        -0.320014
 H         2.365987        -2.499094         1.085840
 H         2.054920        -1.657132        -1.558557
