19
Iteration:  1657charge 0 multiplicity 1
 C         0.043281         0.475486        -0.308851
 C         1.368212        -0.133494        -0.228649
 O         2.061265         0.287486         1.042825
 C         2.487592         0.836480        -0.157316
 C         3.444021        -0.146927        -0.875843
 O         4.440363        -0.562690        -0.116332
 C         4.352027        -1.987714         0.125124
 C         2.882978        -2.275209         0.019558
 C         2.336779        -1.162114        -0.897663
 H        -0.680871        -0.223294         0.224190
 H         0.065016         1.380000         0.348266
 H        -0.363722         0.931872        -1.260581
 H         2.466749         1.958569        -0.231251
 H         3.759690         0.039726        -1.911216
 H         4.957974        -2.489922        -0.659143
 H         4.774296        -2.132582         1.055586
 H         2.441601        -3.224084        -0.212837
 H         2.397806        -2.102363         0.926645
 H         2.034667        -1.350356        -1.936402
