19
Iteration:  1495
 C        -0.092559         0.516910        -0.355686
 C         1.341809        -0.037737        -0.153926
 O         2.159896         0.279693         1.026485
 C         2.548829         0.856093        -0.156155
 C         3.449388        -0.095175        -0.906831
 O         4.405489        -0.535502         0.007259
 C         4.431186        -2.004092        -0.020603
 C         2.894683        -2.351928         0.049875
 C         2.243509        -1.220157        -0.886515
 H        -0.641365        -0.393357        -0.242932
 H        -0.353199         1.284024         0.339377
 H        -0.160623         0.895693        -1.331590
 H         2.634276         1.953474        -0.237928
 H         3.932582         0.097778        -1.876855
 H         5.026912        -2.472168        -0.769925
 H         4.758276        -2.338336         0.968552
 H         2.558720        -3.401390        -0.163147
 H         2.407571        -2.267571         1.016315
 H         1.846317        -1.562519        -1.795540
