19
Iteration:  2935charge 0 multiplicity 1
 C         0.042828         0.408510        -0.308433
 C         1.437023        -0.010213        -0.056591
 O         2.103056         0.579078         1.053951
 C         2.582017         0.870883        -0.239921
 C         3.372065        -0.245358        -1.071580
 O         4.572164        -0.745102        -0.461043
 C         4.250311        -1.872064         0.484784
 C         2.914828        -2.399490         0.017272
 C         2.185998        -1.198120        -0.742454
 H        -0.698241        -0.447837        -0.056543
 H        -0.307165         1.276221         0.257805
 H        -0.055142         0.490114        -1.415549
 H         2.372753         1.936942        -0.433144
 H         3.501812         0.192634        -2.091031
 H         5.023730        -2.670755         0.394082
 H         4.060634        -1.500174         1.532727
 H         3.022074        -3.262762        -0.640708
 H         2.184197        -2.698060         0.806061
 H         1.539988        -1.637905        -1.561815
