19
Iteration:  3666
 C        -0.028831         0.245379        -0.333436
 C         1.402426        -0.027045        -0.092563
 O         2.240164         0.554459         1.035636
 C         2.524847         0.903266        -0.420249
 C         3.420309        -0.242582        -0.944369
 O         4.454207        -0.577208        -0.064599
 C         4.354592        -1.921237         0.235905
 C         2.802443        -2.396369         0.031318
 C         2.215927        -1.137569        -0.779133
 H        -0.275230        -0.139513        -1.344418
 H        -0.688319        -0.262765         0.454801
 H        -0.327908         1.327479        -0.360595
 H         2.613561         1.957423        -0.760272
 H         3.794639        -0.159054        -2.009092
 H         4.975573        -2.489055        -0.494390
 H         4.773068        -2.104291         1.254846
 H         2.564117        -3.208975        -0.665226
 H         2.346028        -2.627140         1.031702
 H         1.677569        -1.337227        -1.722735
