19
Iteration:   836
 C         0.100526         0.512908        -0.471247
 C         1.396676        -0.087846        -0.063159
 O         2.260080         0.274469         1.159576
 C         2.550471         0.837244        -0.059584
 C         3.315533        -0.156729        -0.979001
 O         4.467281        -0.514237        -0.377345
 C         4.157220        -1.815218         0.397353
 C         2.911737        -2.418833        -0.129587
 C         2.231968        -1.284440        -0.756530
 H        -0.788355        -0.135594        -0.084339
 H        -0.163115         1.504985        -0.035745
 H         0.009303         0.605222        -1.613297
 H         2.587003         1.951261        -0.166722
 H         3.254439         0.223606        -2.018315
 H         4.964648        -2.453872         0.286419
 H         4.055486        -1.442622         1.490175
 H         3.207476        -3.018298        -1.037988
 H         2.410324        -3.135958         0.417133
 H         1.720921        -1.642232        -1.724773
