19
Iteration:  1021charge 0 multiplicity 1
 C        -0.007884         0.192413         0.004910
 C         1.494816        -0.008024        -0.044279
 O         2.227156         0.686792         0.952989
 C         2.592998         0.957709        -0.442627
 C         3.480246        -0.188940        -0.927030
 O         4.307183        -0.602329         0.144901
 C         4.172600        -2.067044         0.247578
 C         2.885089        -2.454021        -0.458940
 C         2.253757        -1.118018        -0.858048
 H        -0.434443        -0.250145         0.929902
 H        -0.142541         1.299593         0.076092
 H        -0.492146        -0.241561        -0.899051
 H         2.617897         2.017619        -0.729139
 H         3.955760        -0.040935        -1.916137
 H         5.121590        -2.549396        -0.194779
 H         4.116554        -2.312207         1.355999
 H         3.043034        -3.034959        -1.408241
 H         2.283732        -3.135402         0.157588
 H         1.780097        -1.189537        -1.905057
