19
Iteration:  1104charge 0 multiplicity 1
 C        -0.046022         0.233261        -0.255947
 C         1.481238         0.024387        -0.269662
 O         2.049063         0.132443         1.041838
 C         2.719749         0.869241        -0.010531
 C         3.475140        -0.030415        -0.973584
 O         4.559114        -0.791364        -0.516998
 C         4.163614        -1.731032         0.506636
 C         2.727273        -2.219778         0.030348
 C         2.321104        -1.028251        -0.952322
 H        -0.493346        -0.765505         0.043804
 H        -0.323562         0.959369         0.470009
 H        -0.493901         0.516734        -1.222563
 H         2.941173         1.944597         0.183618
 H         3.670216         0.476042        -1.931759
 H         5.000054        -2.419244         0.522011
 H         4.104161        -1.337799         1.499864
 H         2.653233        -3.090652        -0.568598
 H         1.984820        -2.213377         0.895346
 H         1.986462        -1.279730        -1.922371
