19
Iteration:  3451charge 0 multiplicity 1
 C         0.029575        -0.013185        -0.197740
 C         1.486893         0.066339        -0.162378
 O         2.343822         0.459757         0.979745
 C         2.616564         1.051273        -0.323640
 C         3.495728        -0.172362        -1.136488
 O         4.489640        -0.859421        -0.450276
 C         3.999490        -1.682037         0.684765
 C         2.720829        -2.250546         0.058591
 C         2.244000        -1.127020        -0.840112
 H        -0.409892         0.012626        -1.163296
 H        -0.312137        -0.978279         0.273061
 H        -0.374147         0.828290         0.358655
 H         2.600506         2.117226        -0.474368
 H         3.795292         0.051675        -2.164599
 H         4.837225        -2.377017         0.908428
 H         3.828414        -0.930264         1.521325
 H         3.060935        -3.167411        -0.487797
 H         1.884628        -2.687541         0.624340
 H         1.509767        -1.275291        -1.595924
