19
Iteration:  3049
 C        -0.019179         0.350785        -0.239358
 C         1.440548        -0.028670        -0.045660
 O         2.192375         0.573177         0.991826
 C         2.686704         0.881583        -0.386987
 C         3.314538        -0.282527        -1.013189
 O         4.581131        -0.685896        -0.346089
 C         4.154947        -1.834032         0.522161
 C         2.921936        -2.377235        -0.068673
 C         2.117090        -1.208762        -0.737968
 H        -0.665853        -0.414733        -0.624368
 H        -0.451858         0.674153         0.723790
 H         0.009736         1.148764        -0.991632
 H         2.625453         1.905066        -0.642139
 H         3.732277        -0.142366        -2.017509
 H         4.896200        -2.667306         0.451671
 H         4.123304        -1.402879         1.577508
 H         3.146536        -3.097935        -0.881812
 H         2.249857        -2.996783         0.487955
 H         1.426559        -1.542045        -1.501551
