19
Iteration:  4340
 C        -0.114468         0.173377        -0.178112
 C         1.388023        -0.018310        -0.186024
 O         2.138635         0.448336         0.936644
 C         2.642901         0.889622        -0.322161
 C         3.534095        -0.173839        -1.028800
 O         4.682441        -0.837805        -0.427326
 C         4.110704        -1.600090         0.614116
 C         2.802696        -2.282824         0.052305
 C         2.224156        -1.123768        -0.836557
 H        -0.451513         0.490970        -1.173984
 H        -0.627138        -0.815645         0.052031
 H        -0.461320         0.848894         0.644984
 H         2.836297         1.938777        -0.534238
 H         3.720362        -0.033820        -2.123624
 H         4.851461        -2.421668         0.799890
 H         3.948869        -0.947338         1.526739
 H         2.973152        -3.187503        -0.586559
 H         2.046273        -2.694286         0.835173
 H         1.839997        -1.647368        -1.699301
