19
Iteration:  2584charge 0 multiplicity 1
 C         0.014391         0.406098         0.092674
 C         1.455332        -0.085513        -0.142486
 O         2.240848         0.323521         0.922573
 C         2.550032         0.905214        -0.381237
 C         3.491860        -0.046062        -0.958742
 O         4.504494        -0.640467        -0.133293
 C         3.980545        -1.861588         0.563209
 C         2.878301        -2.412759        -0.351711
 C         2.251144        -1.168780        -1.012583
 H        -0.684621        -0.227635        -0.438242
 H        -0.277557         0.481784         1.107900
 H         0.064356         1.384840        -0.419173
 H         2.390283         1.985578        -0.640764
 H         3.944833         0.144778        -1.968680
 H         4.811314        -2.604950         0.677254
 H         3.640218        -1.648161         1.595147
 H         3.364486        -3.122192        -1.120499
 H         2.207027        -3.019537         0.216907
 H         2.019106        -1.474696        -2.070593
