19
Iteration:  4697
 C        -0.003660         0.141274        -0.067936
 C         1.466550        -0.032314        -0.249500
 O         2.328436         0.386643         0.906620
 C         2.583185         0.943092        -0.463518
 C         3.431175        -0.209991        -1.125983
 O         4.534343        -0.580376        -0.220267
 C         3.997482        -1.737221         0.656783
 C         2.762519        -2.327133         0.062062
 C         2.276752        -1.196577        -0.959050
 H        -0.459452         0.183981        -1.057280
 H        -0.448646        -0.621939         0.534130
 H        -0.097461         1.166242         0.369538
 H         2.665050         2.029333        -0.570449
 H         3.860453         0.087177        -2.123648
 H         4.699107        -2.531198         0.764215
 H         3.796185        -1.306887         1.658716
 H         3.019201        -3.264331        -0.417017
 H         2.065602        -2.611254         0.837106
 H         1.797474        -1.334399        -1.943381
