19
Iteration:  3598charge 0 multiplicity 1
 C        -0.088525         0.080237        -0.398179
 C         1.368392         0.000104        -0.187018
 O         1.968072         0.504930         0.971059
 C         2.603537         0.967028        -0.291657
 C         3.505637        -0.162999        -0.885113
 O         4.721301        -0.747008        -0.187157
 C         4.334728        -2.099496        -0.019674
 C         2.759770        -2.023667         0.382239
 C         2.254307        -1.085723        -0.747592
 H        -0.334519         0.370013        -1.478394
 H        -0.624884        -0.829940        -0.093068
 H        -0.491937         0.942378         0.183491
 H         2.564037         2.027776        -0.170045
 H         3.776956         0.186737        -1.926359
 H         4.446043        -2.814146        -0.890465
 H         4.948505        -2.508812         0.790117
 H         2.421266        -3.021739         0.452073
 H         2.556775        -1.405066         1.296200
 H         1.720474        -1.507406        -1.661819
