19
Iteration:  3644charge 0 multiplicity 1
 C        -0.048863         0.209113        -0.263459
 C         1.372873         0.000058        -0.206497
 O         2.096163         0.490916         0.911144
 C         2.553707         0.995961        -0.359058
 C         3.509846        -0.140620        -0.928776
 O         4.523253        -0.596605        -0.044330
 C         4.314845        -2.052142         0.103768
 C         2.815740        -2.268238         0.199358
 C         2.257353        -1.213159        -0.780890
 H        -0.414520         0.079711        -1.310223
 H        -0.621270        -0.454544         0.473324
 H        -0.267908         1.277867         0.005918
 H         2.665660         2.041612        -0.635093
 H         3.922368        -0.013218        -1.972172
 H         4.688544        -2.590012        -0.783755
 H         4.771842        -2.484561         1.025990
 H         2.484162        -3.294762        -0.067147
 H         2.533005        -2.010984         1.265354
 H         1.882575        -1.554260        -1.761285
