19
Iteration:  1634charge 0 multiplicity 1
 C        -0.081716         0.511698        -0.170641
 C         1.323488         0.042708        -0.253765
 O         2.034265         0.223225         0.923743
 C         2.503737         0.923346        -0.228948
 C         3.487723        -0.087921        -0.890666
 O         4.596266        -0.556273        -0.045473
 C         4.368715        -1.993786         0.188143
 C         2.844732        -2.361614        -0.000728
 C         2.309507        -1.269989        -0.893838
 H        -0.573389        -0.096395         0.633864
 H        -0.232602         1.591618        -0.058447
 H        -0.545956         0.290527        -1.214530
 H         2.736612         1.991808        -0.156973
 H         3.870809         0.154481        -1.890898
 H         4.914840        -2.452351        -0.658545
 H         4.794465        -2.268148         1.087814
 H         2.680813        -3.305841        -0.507258
 H         2.249386        -2.537070         0.846804
 H         1.803213        -1.544875        -1.845327
