19
Iteration:   458
 C        -0.034873         0.019444        -0.008566
 C         1.448728         0.008941        -0.326754
 O         2.014121         0.425327         0.943422
 C         2.734645         1.018567        -0.123191
 C         3.554245        -0.042590        -0.888989
 O         4.636661        -0.857083        -0.322903
 C         4.031976        -1.843415         0.541339
 C         2.717811        -2.240327        -0.216954
 C         2.319038        -1.006298        -1.047665
 H        -0.117049        -0.816754         0.812855
 H        -0.109503         1.037036         0.519577
 H        -0.841841        -0.055475        -0.865491
 H         2.657089         2.077358        -0.018883
 H         4.059429         0.440867        -1.730569
 H         4.846205        -2.728815         0.476307
 H         3.818022        -1.460872         1.539750
 H         3.054139        -3.159438        -0.844038
 H         1.863432        -2.621058         0.324454
 H         1.963506        -1.108229        -2.026960
