19
Iteration:  1949charge 0 multiplicity 1
 C        -0.067059         0.414647        -0.132706
 C         1.385342        -0.140360        -0.188892
 O         2.089231         0.339008         1.066749
 C         2.510706         0.861243        -0.159320
 C         3.515083        -0.077625        -0.881627
 O         4.605303        -0.686193        -0.274389
 C         4.169943        -1.826680         0.453824
 C         2.943229        -2.360002        -0.291126
 C         2.276509        -1.126119        -0.968265
 H        -0.839907        -0.121458         0.427479
 H        -0.033152         1.390865         0.338965
 H        -0.569709         0.404888        -1.142454
 H         2.383203         1.939009        -0.169538
 H         3.878043         0.282695        -1.880871
 H         4.967116        -2.566594         0.218341
 H         3.993380        -1.700107         1.572083
 H         3.237998        -3.166334        -1.077639
 H         2.113106        -2.796493         0.329643
 H         1.819475        -1.387874        -1.996881
