19
Iteration:    76
 C        -0.037983         0.401374        -0.552595
 C         1.405433        -0.015919        -0.078598
 O         2.231392         0.214382         1.302907
 C         2.522416         0.862355        -0.018755
 C         3.379870        -0.060689        -0.912031
 O         4.560311        -0.659978        -0.431787
 C         4.182472        -1.809517         0.313499
 C         2.807586        -2.406375        -0.108812
 C         2.313938        -1.105163        -0.820841
 H        -0.388660         1.337581        -0.248722
 H         0.002874         0.396530        -1.605765
 H        -0.705543        -0.365639        -0.289262
 H         2.517426         1.939946        -0.176581
 H         3.566152         0.364199        -1.923832
 H         5.106325        -2.490605         0.292560
 H         4.039417        -1.537377         1.345914
 H         2.887002        -3.246422        -0.717928
 H         2.276497        -2.698562         0.662043
 H         2.012494        -1.300333        -1.850085
