19
Iteration:  1668charge 0 multiplicity 1
 C        -0.003569         0.407852        -0.333389
 C         1.407540        -0.035722        -0.112574
 O         2.055465         0.265944         1.067034
 C         2.512803         0.896163        -0.184754
 C         3.403644        -0.102709        -0.949140
 O         4.512145        -0.591768        -0.093393
 C         4.382957        -2.008424         0.105393
 C         2.790966        -2.244629         0.030841
 C         2.312747        -1.192987        -0.897504
 H        -0.857616        -0.340223        -0.351197
 H        -0.183975         1.258668         0.378830
 H         0.095146         0.621015        -1.433940
 H         2.657228         2.002552        -0.153442
 H         3.722011         0.275101        -1.932104
 H         4.938338        -2.557679        -0.686414
 H         4.798042        -2.288916         1.015747
 H         2.584230        -3.270155        -0.222669
 H         2.522895        -1.927739         0.995320
 H         1.814104        -1.528524        -1.806888
