19
Iteration:  1860charge 0 multiplicity 1
 C        -0.074622         0.050023        -0.208078
 C         1.422543         0.031717        -0.226709
 O         2.142971         0.406418         1.030523
 C         2.599491         1.031240        -0.161021
 C         3.480369         0.035949        -0.902873
 O         4.623725        -0.728646        -0.230753
 C         4.144599        -2.034145         0.335725
 C         2.715144        -2.296618        -0.115654
 C         2.328610        -0.996337        -0.919337
 H        -0.448315        -0.914120         0.195068
 H        -0.231985         0.898153         0.441681
 H        -0.368190         0.218404        -1.290828
 H         2.559976         2.163027        -0.230581
 H         3.782508         0.311460        -1.930976
 H         4.767718        -2.811989        -0.094064
 H         4.342341        -1.899661         1.501017
 H         2.745190        -3.253005        -0.729135
 H         2.141327        -2.351724         0.845256
 H         1.915096        -1.392365        -1.850441
