19
Iteration:  3863charge 0 multiplicity 1
 C        -0.031084         0.287906        -0.479386
 C         1.415554         0.011193        -0.145978
 O         2.044661         0.433804         1.045257
 C         2.571347         0.977272        -0.253325
 C         3.377921        -0.180101        -0.959049
 O         4.524367        -0.620888        -0.228162
 C         4.361067        -1.956228         0.142346
 C         2.856869        -2.333571         0.265868
 C         2.282918        -1.180581        -0.698513
 H        -0.206563        -0.292650        -1.361090
 H        -0.836728        -0.004800         0.236411
 H        -0.166180         1.345613        -0.651644
 H         2.461772         2.088239        -0.410262
 H         3.695101        -0.123006        -2.047637
 H         4.919720        -2.468812        -0.727344
 H         5.019233        -2.271497         1.009155
 H         2.494572        -3.292301        -0.106352
 H         2.639052        -2.213715         1.368691
 H         1.720162        -1.609248        -1.560972
