19
Iteration:  2837
 C         0.061644        -0.045794         0.064429
 C         1.477469         0.064428        -0.235206
 O         2.368641         0.364099         0.824891
 C         2.680543         1.003344        -0.358464
 C         3.494459        -0.159818        -1.064160
 O         4.448305        -0.762472        -0.270845
 C         3.883564        -1.735544         0.722756
 C         2.715647        -2.202898        -0.111793
 C         2.267725        -0.968356        -1.035544
 H        -0.343787         0.780482         0.715553
 H        -0.481858        -0.072337        -0.836208
 H        -0.081380        -1.000174         0.580728
 H         3.006160         2.010433        -0.357146
 H         3.945737        -0.097810        -2.093295
 H         4.563570        -2.599527         0.848858
 H         3.604060        -1.425914         1.773060
 H         2.876398        -3.128308        -0.593240
 H         1.950111        -2.608934         0.574865
 H         1.787058        -1.272241        -2.000176
