19
Iteration:  4056
 C        -0.046988         0.052332        -0.244787
 C         1.451277         0.049622        -0.226681
 O         2.112380         0.498484         0.960862
 C         2.638409         0.955604        -0.321041
 C         3.435086        -0.186003        -1.031049
 O         4.581612        -0.703062        -0.255285
 C         4.275705        -1.867905         0.446899
 C         2.755750        -2.202829         0.094341
 C         2.253213        -1.153204        -0.866835
 H        -0.386461        -0.391618        -1.190617
 H        -0.576900        -0.310922         0.618139
 H        -0.376522         1.105755        -0.242035
 H         2.643411         2.036728        -0.205791
 H         3.562679         0.120050        -2.078433
 H         4.985196        -2.758049         0.317572
 H         4.323653        -1.665255         1.535786
 H         2.577737        -3.153914        -0.328827
 H         2.135429        -2.187674         1.024238
 H         1.727970        -1.618481        -1.679284
