19
Iteration:  4644charge 0 multiplicity 1
 C        -0.159253         0.175842        -0.225850
 C         1.367777        -0.001119        -0.168653
 O         2.097477         0.568926         0.932967
 C         2.638103         0.938570        -0.263434
 C         3.506807        -0.189190        -0.984522
 O         4.642335        -0.835248        -0.482935
 C         4.207621        -1.751151         0.602756
 C         2.814501        -2.318298         0.007755
 C         2.309230        -1.189448        -0.775242
 H        -0.503395        -0.450205        -1.114134
 H        -0.549240        -0.259654         0.722251
 H        -0.460251         1.319516        -0.164189
 H         2.689265         2.024512        -0.438135
 H         3.803191         0.133644        -1.988164
 H         4.812996        -2.569106         0.925545
 H         4.077987        -1.049176         1.468067
 H         3.082247        -3.128778        -0.632283
 H         2.063928        -2.745374         0.698764
 H         1.797628        -1.328264        -1.725474
