19
Iteration:  2289
 C        -0.076395         0.373341        -0.173104
 C         1.408381        -0.082399        -0.130753
 O         2.182744         0.420534         0.975294
 C         2.553628         0.895695        -0.293649
 C         3.510633        -0.151342        -0.878149
 O         4.388754        -0.566214         0.011851
 C         4.279521        -1.959670         0.168176
 C         2.864285        -2.417104        -0.254986
 C         2.259453        -1.143702        -0.828398
 H        -0.846657        -0.312639        -0.592996
 H        -0.310633         0.780040         0.824946
 H        -0.102114         1.341304        -0.652583
 H         2.542064         2.026557        -0.382714
 H         4.016060         0.174148        -1.782260
 H         5.126057        -2.522938        -0.228313
 H         4.451500        -2.139710         1.221355
 H         2.933586        -3.252530        -1.050388
 H         2.482439        -2.807138         0.627238
 H         1.826741        -1.462958        -1.802749
