19
Iteration:  4006
 C        -0.011741         0.313039        -0.216850
 C         1.436534        -0.064487        -0.251985
 O         2.080247         0.341855         0.914484
 C         2.558473         0.912338        -0.394861
 C         3.467972        -0.230665        -1.011105
 O         4.466205        -0.546028        -0.150283
 C         4.295495        -1.887384         0.375517
 C         2.839303        -2.249656         0.160979
 C         2.285277        -1.179592        -0.903513
 H        -0.495181         0.351258        -1.169943
 H        -0.603392        -0.419202         0.427819
 H        -0.119490         1.189675         0.417462
 H         2.547740         1.980612        -0.365784
 H         3.586072        -0.155818        -2.096835
 H         5.042250        -2.520017        -0.028737
 H         4.533860        -1.956099         1.451407
 H         2.573141        -3.340400         0.046433
 H         2.496508        -1.888018         1.156317
 H         2.099437        -1.666372        -1.893763
