19
Iteration:  1220charge 0 multiplicity 1
 C        -0.016310         0.144273        -0.348283
 C         1.454787         0.043327        -0.286040
 O         1.941154         0.198115         1.087338
 C         2.611620         0.990178         0.038098
 C         3.558659        -0.043464        -0.905897
 O         4.613124        -0.708819        -0.403058
 C         4.230697        -1.973024         0.238176
 C         2.704052        -2.184407         0.093608
 C         2.318906        -0.954297        -0.877471
 H        -0.429252        -0.550988         0.351423
 H        -0.304456         1.180292        -0.186668
 H        -0.361339        -0.185088        -1.332377
 H         2.692852         2.097606         0.168898
 H         3.821328         0.438958        -1.854125
 H         4.831950        -2.679434        -0.305390
 H         4.661434        -2.094631         1.251711
 H         2.552082        -3.176770        -0.405107
 H         2.301010        -2.172118         1.060513
 H         1.877205        -1.290141        -1.847715
