19
Iteration:  1760charge 0 multiplicity 1
 C        -0.137455         0.225412        -0.413761
 C         1.409398         0.102918        -0.269186
 O         1.966612         0.341325         1.034954
 C         2.626500         0.964668        -0.076819
 C         3.499811        -0.047447        -0.777140
 O         4.603359        -0.685665        -0.147328
 C         4.298239        -2.097474        -0.121580
 C         2.836715        -2.250940         0.139967
 C         2.291158        -1.085318        -0.722278
 H        -0.582194        -0.534950         0.265576
 H        -0.390246         1.233344        -0.066855
 H        -0.349123        -0.071451        -1.405452
 H         2.677476         2.025843        -0.059136
 H         3.879906         0.508699        -1.650547
 H         4.563789        -2.459618        -1.125758
 H         5.027721        -2.707807         0.574628
 H         2.425825        -3.279177         0.022934
 H         2.424915        -1.896230         1.136874
 H         2.168971        -1.380192        -1.719210
