19
Iteration:  2743charge 0 multiplicity 1
 C        -0.026244         0.537919        -0.363147
 C         1.365537        -0.039995        -0.112788
 O         2.116639         0.390113         1.110232
 C         2.592498         0.901600        -0.263128
 C         3.386075        -0.173620        -0.952828
 O         4.508951        -0.665874        -0.333556
 C         4.331929        -1.895226         0.318607
 C         2.908887        -2.422556         0.032235
 C         2.183626        -1.255657        -0.773837
 H         0.021899         1.300785        -1.127445
 H        -0.988223        -0.042074        -0.752001
 H        -0.415868         0.968874         0.579828
 H         2.776923         1.995225        -0.295928
 H         3.645498         0.097756        -1.969064
 H         5.039487        -2.587985        -0.130382
 H         4.712677        -1.735383         1.320380
 H         3.064344        -3.381935        -0.500772
 H         2.295321        -2.853442         0.846334
 H         1.789931        -1.513048        -1.737139
