19
Iteration:  1038charge 0 multiplicity 1
 C         0.046028         0.086438        -0.077718
 C         1.481535         0.053616        -0.251080
 O         2.362631         0.606827         1.019446
 C         2.566808         0.989019        -0.301227
 C         3.455385        -0.136832        -0.883587
 O         4.402552        -0.610302         0.057659
 C         4.165822        -1.942263         0.298377
 C         2.671471        -2.484458        -0.407384
 C         2.234907        -1.100223        -0.895126
 H        -0.137881        -0.534069         0.811196
 H        -0.496738         0.983383         0.131174
 H        -0.441495        -0.401387        -0.922960
 H         2.474816         2.020264        -0.682699
 H         3.966747         0.055568        -1.838272
 H         4.965703        -2.578769         0.001348
 H         4.203749        -2.101510         1.346711
 H         2.890573        -3.171326        -1.197004
 H         2.040361        -2.952129         0.423395
 H         1.694452        -1.163070        -1.807379
