19
Iteration:  3166
 C         0.055385         0.059558        -0.064676
 C         1.490798         0.019918        -0.178319
 O         2.303671         0.480906         0.878225
 C         2.654709         0.974956        -0.429438
 C         3.507900        -0.123551        -1.079779
 O         4.588983        -0.773532        -0.351678
 C         3.980975        -1.736310         0.661223
 C         2.643190        -2.275779         0.071671
 C         2.192120        -1.159859        -0.916612
 H        -0.404619        -0.355481        -0.960144
 H        -0.238714        -0.750182         0.693206
 H        -0.408788         1.032727         0.171674
 H         2.916967         2.005660        -0.609076
 H         3.807089         0.195670        -2.096337
 H         4.595601        -2.557503         0.943426
 H         3.818065        -1.001823         1.434340
 H         2.809491        -3.200595        -0.433381
 H         1.782465        -2.579087         0.686600
 H         1.613790        -1.541587        -1.758554
