19
Iteration:  3600charge 0 multiplicity 1
 C        -0.087517         0.088307        -0.373677
 C         1.390958         0.003174        -0.205546
 O         1.950711         0.495161         0.952915
 C         2.605766         0.972489        -0.295958
 C         3.503010        -0.170473        -0.881568
 O         4.737096        -0.742733        -0.175775
 C         4.314191        -2.098377        -0.018078
 C         2.767917        -2.032142         0.374126
 C         2.243320        -1.076001        -0.753130
 H        -0.350058         0.340148        -1.448622
 H        -0.647149        -0.871223        -0.086554
 H        -0.499377         0.951286         0.223781
 H         2.590454         2.018711        -0.160961
 H         3.780433         0.180169        -1.904462
 H         4.480594        -2.727277        -0.929058
 H         4.917246        -2.502763         0.814896
 H         2.360616        -3.044887         0.472882
 H         2.658054        -1.378930         1.311833
 H         1.719142        -1.575205        -1.603197
