19
Iteration:  2220charge 0 multiplicity 1
 C         0.063237        -0.037501        -0.184448
 C         1.528407         0.025829        -0.124867
 O         2.229520         0.309004         1.113828
 C         2.621976         1.017661        -0.074581
 C         3.538389        -0.071372        -0.997875
 O         4.601682        -0.800816        -0.382138
 C         3.915334        -1.716704         0.509217
 C         2.725554        -2.259557        -0.197598
 C         2.216965        -1.018279        -1.060068
 H        -0.271583        -1.090040        -0.181510
 H        -0.456806         0.728056         0.480426
 H        -0.259674         0.414378        -1.170962
 H         2.699551         2.071850         0.068498
 H         3.883652         0.345094        -1.964074
 H         4.648960        -2.265385         0.950130
 H         3.590144        -1.152274         1.406191
 H         2.846293        -3.111573        -0.912992
 H         1.864315        -2.638972         0.481353
 H         1.711620        -1.050121        -2.026424
