19
Iteration:  1601
 C         0.005670         0.172862        -0.267936
 C         1.442681         0.016806        -0.221931
 O         2.144653         0.446816         1.033162
 C         2.582949         0.975079        -0.143983
 C         3.499098        -0.054509        -0.880705
 O         4.514514        -0.657803        -0.085291
 C         4.250433        -2.051076         0.170868
 C         2.745423        -2.275268        -0.066431
 C         2.259300        -1.114860        -0.915621
 H        -0.554779        -0.153465         0.640032
 H        -0.427489         1.144858        -0.472899
 H        -0.466014        -0.575809        -1.010133
 H         2.579091         2.054412        -0.307656
 H         3.965278         0.339105        -1.789593
 H         4.799920        -2.712082        -0.552572
 H         4.550544        -2.279925         1.154140
 H         2.502544        -3.135490        -0.658535
 H         2.228171        -2.155323         0.839713
 H         1.716425        -1.503139        -1.813570
