19
Iteration:  3304charge 0 multiplicity 1
 C        -0.013933         0.140272        -0.303374
 C         1.434239         0.061618        -0.257046
 O         1.956455         0.425774         1.034594
 C         2.691555         0.956916        -0.163057
 C         3.508643        -0.119644        -0.925671
 O         4.640438        -0.852173        -0.568136
 C         4.226144        -1.917504         0.388293
 C         2.735292        -2.142280         0.183453
 C         2.251264        -1.071271        -0.764239
 H        -0.468004        -0.456262        -1.130288
 H        -0.365989        -0.460358         0.483079
 H        -0.404621         1.139459        -0.158089
 H         2.856043         2.032711        -0.284413
 H         3.642748         0.145868        -1.958387
 H         4.933103        -2.775747         0.281869
 H         4.490278        -1.381040         1.313897
 H         2.401792        -3.180238        -0.084098
 H         2.247093        -1.934245         1.164632
 H         1.981949        -1.536492        -1.726190
