19
Iteration:  2767
 C        -0.032780         0.464301        -0.221516
 C         1.351873         0.054153        -0.168046
 O         2.133233         0.499869         1.022630
 C         2.627300         0.853836        -0.265219
 C         3.384696        -0.217834        -0.985124
 O         4.610418        -0.664433        -0.290118
 C         4.277224        -1.943971         0.383026
 C         2.885482        -2.422459        -0.109521
 C         2.165471        -1.200357        -0.701126
 H        -0.358780         1.171093        -0.963171
 H        -0.509807        -0.446601        -0.767581
 H        -0.674739         0.529376         0.682276
 H         2.572617         1.984425        -0.401449
 H         3.563684        -0.022985        -2.029276
 H         5.134524        -2.651884         0.360455
 H         4.226412        -1.677724         1.426441
 H         2.953323        -3.272339        -0.811400
 H         2.324979        -2.936572         0.601499
 H         1.825309        -1.420995        -1.727285
