19
Iteration:  3432charge 0 multiplicity 1
 C         0.041733         0.029288        -0.040329
 C         1.529026         0.013769        -0.132654
 O         2.265172         0.687447         0.966215
 C         2.656395         0.931248        -0.460633
 C         3.426874        -0.223932        -1.012764
 O         4.569097        -0.797378        -0.332432
 C         3.948639        -1.702776         0.605279
 C         2.752000        -2.368567        -0.086270
 C         2.233196        -1.166595        -0.890945
 H        -0.258191         0.270397        -1.114538
 H        -0.263526        -0.994353         0.249728
 H        -0.616270         0.688508         0.556310
 H         2.660350         2.011473        -0.617975
 H         3.726843         0.023076        -2.074719
 H         4.757870        -2.391823         0.877946
 H         3.668764        -1.200104         1.516175
 H         2.965074        -3.142296        -0.836953
 H         2.077664        -2.651497         0.679298
 H         1.751359        -1.328301        -1.883982
