19
Iteration:  2196
 C        -0.045100         0.018801        -0.203499
 C         1.494990         0.098322        -0.202514
 O         2.244499         0.122421         1.034115
 C         2.708650         0.949106        -0.135118
 C         3.497044        -0.040244        -0.935035
 O         4.568821        -0.696889        -0.379631
 C         3.986248        -1.766929         0.552980
 C         2.676313        -2.134675        -0.112353
 C         2.288211        -1.031306        -1.002447
 H        -0.276294        -0.866926         0.422009
 H        -0.486624         0.922786         0.166300
 H        -0.546922        -0.087726        -1.212423
 H         2.882705         1.978286         0.077499
 H         3.710143         0.400763        -1.942086
 H         4.744178        -2.511604         0.450695
 H         4.067223        -1.494726         1.621487
 H         2.835530        -2.995830        -0.772235
 H         1.698919        -2.412479         0.455846
 H         1.953253        -1.192642        -2.010003
