19
Iteration:  2097charge 0 multiplicity 1
 C         0.016624         0.271454        -0.479645
 C         1.469575        -0.065774        -0.090744
 O         2.054710         0.451088         1.130309
 C         2.548003         0.978417        -0.078731
 C         3.439345        -0.054645        -0.786983
 O         4.520275        -0.587738        -0.125895
 C         4.364501        -2.038617        -0.043787
 C         2.805467        -2.390160        -0.019073
 C         2.188617        -1.169846        -0.796066
 H        -0.634984        -0.577469        -0.172347
 H        -0.393523         1.148088         0.011944
 H        -0.029352         0.552697        -1.549219
 H         2.450037         2.042322        -0.417583
 H         3.667763         0.314806        -1.814859
 H         4.777753        -2.542542        -0.915422
 H         4.939890        -2.341469         0.829397
 H         2.679717        -3.304593        -0.558263
 H         2.561177        -2.441158         1.067324
 H         1.656421        -1.360652        -1.715518
