19
Iteration:  4916charge 0 multiplicity 1
 C        -0.067963         0.091551        -0.399096
 C         1.402815         0.034841        -0.149006
 O         2.134459         0.788188         0.938498
 C         2.533644         1.010513        -0.453570
 C         3.396890        -0.199925        -0.875402
 O         4.540204        -0.651404        -0.057418
 C         4.330721        -2.091407         0.086906
 C         2.830057        -2.286005         0.306469
 C         2.262698        -1.300812        -0.716634
 H        -0.192080         0.208250        -1.458737
 H        -0.561993        -0.832799        -0.214125
 H        -0.555154         0.962193         0.121753
 H         2.691985         2.065411        -0.879813
 H         3.767422         0.098828        -1.877764
 H         4.618268        -2.618846        -0.866057
 H         4.892537        -2.504893         0.938576
 H         2.600998        -3.285195         0.109456
 H         2.645870        -2.046612         1.384373
 H         1.892050        -1.654609        -1.662899
