19
Iteration:  4551charge 0 multiplicity 1
 C        -0.101917         0.261129        -0.362820
 C         1.442671        -0.033507        -0.337704
 O         2.002053         0.556522         0.929919
 C         2.579217         0.954284        -0.367888
 C         3.440397        -0.231643        -0.873671
 O         4.551159        -0.665512        -0.164947
 C         4.328277        -2.057456         0.039541
 C         2.880073        -2.110602         0.414085
 C         2.297310        -1.249455        -0.643735
 H        -0.441439         0.620942        -1.304825
 H        -0.564911        -0.697560        -0.187119
 H        -0.389878         0.877089         0.430193
 H         2.602212         2.018293        -0.471883
 H         3.572310         0.096199        -1.969334
 H         4.573815        -2.521132        -0.930604
 H         4.945384        -2.522614         0.808707
 H         2.629802        -3.204004         0.352961
 H         2.566410        -1.763527         1.433660
 H         2.122888        -1.875603        -1.535918
