19
Iteration:   754
 C        -0.050686        -0.181833        -0.105096
 C         1.475682         0.076809        -0.199789
 O         2.247905         0.337846         0.999435
 C         2.662060         1.034866        -0.235973
 C         3.629330        -0.063322        -1.021578
 O         4.587601        -0.813509        -0.280332
 C         3.953011        -1.821626         0.532026
 C         2.562356        -2.121694        -0.130710
 C         2.325984        -0.907733        -1.000335
 H        -0.183491        -1.168918         0.355902
 H        -0.354047         0.631934         0.571604
 H        -0.625394        -0.182884        -1.007126
 H         2.787754         2.129799        -0.307050
 H         3.883980         0.257406        -2.036253
 H         4.689546        -2.719210         0.443618
 H         3.966246        -1.522121         1.531788
 H         2.791435        -3.026516        -0.676002
 H         1.903897        -2.237299         0.795516
 H         1.949363        -1.065886        -1.969374
