19
Iteration:  3748
 C         0.062775         0.101988        -0.062494
 C         1.533545        -0.008472        -0.287879
 O         2.213219         0.349472         0.936602
 C         2.643557         0.963349        -0.279262
 C         3.498530        -0.178748        -0.991979
 O         4.525933        -0.770722        -0.396105
 C         3.988005        -1.541299         0.662369
 C         2.732263        -2.284448        -0.026693
 C         2.254294        -1.153393        -0.973103
 H        -0.446640        -0.002229        -1.052670
 H        -0.280356        -0.806543         0.443668
 H        -0.286180         0.978154         0.513020
 H         2.634980         2.025944        -0.126106
 H         3.765269         0.022526        -2.002517
 H         4.731890        -2.341380         0.885932
 H         3.720461        -1.056152         1.609363
 H         2.924695        -3.024901        -0.868529
 H         1.962467        -2.718849         0.625435
 H         1.762386        -1.455868        -1.901869
