19
Iteration:  2968charge 0 multiplicity 1
 C        -0.064229         0.322085        -0.319345
 C         1.384676         0.035413        -0.177575
 O         2.141260         0.277877         0.992978
 C         2.723033         0.830399        -0.131234
 C         3.436398        -0.178348        -1.009404
 O         4.620815        -0.824808        -0.630887
 C         4.245515        -1.719172         0.456215
 C         2.725916        -2.170292         0.254921
 C         2.195794        -1.137642        -0.760051
 H        -0.495098        -0.716700        -0.610493
 H        -0.661522         0.788875         0.500086
 H        -0.247758         0.970577        -1.221200
 H         2.762414         1.954304        -0.108773
 H         3.640693         0.177106        -2.058712
 H         4.841538        -2.648724         0.565910
 H         4.364642        -1.123539         1.437954
 H         2.750853        -3.128452        -0.232257
 H         2.085276        -2.015293         1.144829
 H         1.868921        -1.637072        -1.707655
