19
Iteration:  1391charge 0 multiplicity 1
 C        -0.058960         0.150253        -0.404171
 C         1.401298         0.066483        -0.261465
 O         2.046547         0.207793         1.067293
 C         2.627839         0.845791         0.028537
 C         3.492934        -0.055277        -0.843626
 O         4.608842        -0.662122        -0.203330
 C         4.213215        -2.028504         0.001874
 C         2.721294        -2.095142         0.179880
 C         2.354501        -0.956545        -0.910043
 H        -0.481712        -0.336271         0.498178
 H        -0.473046         1.219549        -0.374201
 H        -0.251870        -0.443723        -1.340004
 H         2.820524         1.936966         0.098211
 H         3.792697         0.461134        -1.778538
 H         4.391447        -2.495741        -0.984562
 H         4.715598        -2.473103         0.811516
 H         2.289133        -3.005358        -0.184057
 H         2.485582        -1.737521         1.177915
 H         2.063694        -1.314794        -1.954527
