19
Iteration:  2578charge 0 multiplicity 1
 C        -0.017254         0.347489         0.106902
 C         1.435559        -0.104938        -0.167855
 O         2.224388         0.338298         0.935491
 C         2.586161         0.969823        -0.360857
 C         3.584903        -0.095868        -1.032985
 O         4.501239        -0.626234        -0.174830
 C         3.900695        -1.820296         0.607586
 C         2.872687        -2.479269        -0.359544
 C         2.308615        -1.127601        -0.988853
 H        -0.836049        -0.234169        -0.436455
 H        -0.110621         0.372594         1.240307
 H         0.012033         1.385810        -0.298310
 H         2.425697         2.042659        -0.370671
 H         4.005923         0.021008        -2.019010
 H         4.681096        -2.583370         0.560737
 H         3.620001        -1.486133         1.613087
 H         3.328059        -3.184773        -1.008846
 H         2.065446        -3.082513         0.188214
 H         2.007844        -1.248495        -2.019152
