19
Iteration:  4018
 C        -0.030495         0.283676        -0.143171
 C         1.376286        -0.077582        -0.380281
 O         2.091957         0.336307         0.847695
 C         2.464513         0.989874        -0.331461
 C         3.428284        -0.171873        -1.004736
 O         4.592977        -0.619107        -0.158055
 C         4.342501        -1.922936         0.420284
 C         2.800497        -2.176191         0.177012
 C         2.304885        -1.244479        -0.859273
 H        -0.644418         0.404324        -1.039767
 H        -0.529500        -0.421286         0.569765
 H         0.116402         1.323762         0.168341
 H         2.588405         2.051833        -0.512495
 H         4.024216         0.088455        -1.883731
 H         4.907805        -2.647933        -0.129939
 H         4.560627        -1.773464         1.467992
 H         2.674574        -3.255894        -0.201482
 H         2.132177        -2.094811         1.049308
 H         1.835091        -1.648445        -1.792298
