19
Iteration:  1340charge 0 multiplicity 1
 C        -0.109169         0.387739        -0.252572
 C         1.419232        -0.015749        -0.182827
 O         2.057937         0.595007         1.105283
 C         2.555160         0.934290        -0.242481
 C         3.501558        -0.171869        -0.808617
 O         4.447829        -0.604474         0.091862
 C         4.380238        -2.012331         0.007663
 C         2.899810        -2.489938        -0.259220
 C         2.247010        -1.229900        -0.784825
 H        -0.620132        -0.348153         0.346309
 H        -0.203139         1.326528         0.216157
 H        -0.596445         0.352685        -1.265483
 H         2.577491         1.986150        -0.596436
 H         3.900953        -0.014039        -1.838257
 H         5.049827        -2.306426        -0.897147
 H         4.842927        -2.525631         0.897739
 H         2.856796        -3.051550        -1.294724
 H         2.488676        -3.009665         0.606740
 H         1.741410        -1.406437        -1.753652
