19
Iteration:  3958charge 0 multiplicity 1
 C        -0.030036         0.142080        -0.429580
 C         1.441469         0.038151        -0.106414
 O         2.105374         0.566168         1.005045
 C         2.514186         0.979385        -0.369810
 C         3.434593        -0.155103        -0.916886
 O         4.506545        -0.652552        -0.193814
 C         4.353676        -2.026737         0.166014
 C         2.773557        -2.305330         0.184419
 C         2.280802        -1.128251        -0.663760
 H        -0.133091         0.153880        -1.537657
 H        -0.438838        -0.831981        -0.178629
 H        -0.650762         0.922452         0.063835
 H         2.718356         1.985035        -0.841456
 H         3.712921         0.260618        -1.882113
 H         4.948645        -2.728759        -0.450473
 H         4.753700        -2.134967         1.203322
 H         2.492136        -3.288501        -0.141484
 H         2.551023        -2.132767         1.253862
 H         1.895832        -1.672157        -1.552111
