19
Iteration:   745charge 0 multiplicity 1
 C        -0.020968        -0.172968        -0.146255
 C         1.479643         0.061887        -0.232542
 O         2.392794         0.371488         1.028288
 C         2.636824         1.003501        -0.201560
 C         3.601228        -0.107164        -1.033518
 O         4.546800        -0.720478        -0.259683
 C         3.952725        -1.812920         0.486189
 C         2.572678        -2.195613        -0.111828
 C         2.256961        -0.902564        -0.975401
 H        -0.276511        -1.249727         0.235115
 H        -0.566654         0.542845         0.534217
 H        -0.447513        -0.034802        -1.188903
 H         2.623954         2.081259        -0.167795
 H         4.143200         0.098963        -1.956762
 H         4.682768        -2.646120         0.555393
 H         3.733662        -1.394538         1.509982
 H         2.561190        -3.088081        -0.717162
 H         1.765499        -2.444326         0.695880
 H         1.874610        -1.096059        -1.946066
