19
Iteration:  4494charge 0 multiplicity 1
 C         0.015279         0.034281        -0.411819
 C         1.483297         0.044389        -0.239932
 O         2.056114         0.719722         0.972873
 C         2.596498         1.021387        -0.381407
 C         3.440228        -0.168906        -0.842594
 O         4.552287        -0.630822        -0.185997
 C         4.398293        -2.087367         0.045250
 C         2.721127        -2.313591         0.345293
 C         2.143021        -1.205467        -0.624784
 H        -0.202353        -0.163895        -1.444735
 H        -0.412095        -0.784249         0.079516
 H        -0.445919         0.988454        -0.096445
 H         2.603244         2.107894        -0.585468
 H         3.612041         0.178492        -1.949586
 H         4.667862        -2.595474        -0.878737
 H         5.016591        -2.523626         0.889345
 H         2.510260        -3.356693         0.089773
 H         2.524267        -1.903714         1.434983
 H         1.680367        -1.581451        -1.525037
