19
Iteration:  1427charge 0 multiplicity 1
 C        -0.057788         0.225271        -0.446817
 C         1.422138         0.090574        -0.231914
 O         1.838943         0.333886         1.161422
 C         2.535127         0.972334         0.058843
 C         3.505225        -0.070732        -0.776730
 O         4.674770        -0.791275        -0.375876
 C         4.357541        -2.143970        -0.001418
 C         2.839276        -2.132953         0.110531
 C         2.330675        -0.960060        -0.835585
 H        -0.382927        -0.719257         0.014161
 H        -0.630620         1.071533        -0.176701
 H        -0.271912         0.015306        -1.528492
 H         2.647169         2.044090         0.041428
 H         3.634442         0.502166        -1.714603
 H         4.759729        -2.896519        -0.655862
 H         4.898684        -2.300812         0.892640
 H         2.235472        -3.109590        -0.048806
 H         2.614872        -2.044438         1.153670
 H         1.950270        -1.339134        -1.786638
