19
Iteration:  4768
 C        -0.053434         0.106605        -0.363329
 C         1.352476        -0.041943        -0.090278
 O         2.215009         0.690137         0.912614
 C         2.557190         0.948860        -0.413709
 C         3.417134        -0.191450        -0.963264
 O         4.574126        -0.709013        -0.263327
 C         4.273260        -1.989887         0.408939
 C         2.826443        -2.261980         0.193174
 C         2.233565        -1.122521        -0.723999
 H        -0.303565         0.386892        -1.464334
 H        -0.614253        -0.957880        -0.195455
 H        -0.508116         0.919813         0.249017
 H         2.634322         2.070879        -0.584014
 H         3.454179        -0.044403        -2.037597
 H         5.034303        -2.560551        -0.192082
 H         4.578313        -1.995644         1.476023
 H         2.745260        -3.270855        -0.352062
 H         2.145045        -2.356221         1.056259
 H         1.797192        -1.580736        -1.635267
