19
Iteration:  3397charge 0 multiplicity 1
 C        -0.043880         0.276437         0.108842
 C         1.452080         0.073837        -0.191509
 O         2.256166         0.590452         0.786953
 C         2.493112         0.994076        -0.596434
 C         3.444087        -0.201275        -0.979515
 O         4.476249        -0.700355        -0.091297
 C         4.137028        -1.929765         0.600931
 C         2.881093        -2.390299        -0.149673
 C         2.275550        -1.247086        -0.886613
 H        -0.446239         0.244545        -0.913728
 H        -0.483532        -0.735619         0.375472
 H        -0.286477         1.133815         0.781338
 H         2.621451         2.053271        -0.774427
 H         3.845113        -0.176325        -2.016492
 H         4.936572        -2.698709         0.445994
 H         3.925981        -1.743610         1.700870
 H         3.340684        -3.133626        -0.868622
 H         2.166533        -2.977948         0.440041
 H         1.856418        -1.437692        -1.899799
