19
Iteration:  2040charge 0 multiplicity 1
 C        -0.080600         0.131979        -0.261993
 C         1.408815         0.093094        -0.373469
 O         1.930372         0.314304         1.014469
 C         2.604028         0.942919        -0.037029
 C         3.547932        -0.078905        -0.782899
 O         4.599769        -0.673560        -0.120184
 C         4.290853        -2.103105        -0.062395
 C         2.731694        -2.069911         0.104450
 C         2.390714        -1.036603        -0.868978
 H        -0.365883        -0.871896         0.024652
 H        -0.559870         0.851535         0.433476
 H        -0.500829         0.083531        -1.234880
 H         2.996292         1.986058         0.166786
 H         3.749446         0.231545        -1.848850
 H         4.519471        -2.581994        -1.036038
 H         4.934789        -2.529179         0.686399
 H         2.191940        -3.053094        -0.092178
 H         2.519537        -1.908081         1.184594
 H         2.171337        -1.339308        -1.921914
