19
Iteration:  1985charge 0 multiplicity 1
 C        -0.073689         0.315985        -0.394735
 C         1.412334         0.021546        -0.085791
 O         2.127187         0.332015         1.147452
 C         2.607322         0.944416        -0.114193
 C         3.424812        -0.076899        -0.927422
 O         4.505946        -0.624015        -0.151529
 C         4.295584        -1.941254         0.207242
 C         2.914432        -2.392646        -0.199167
 C         2.159158        -1.138411        -0.778798
 H        -0.728200        -0.334444         0.165226
 H        -0.330956         1.418449        -0.305268
 H        -0.171213         0.154777        -1.448945
 H         2.729507         2.047997        -0.183767
 H         3.676390         0.191518        -1.994912
 H         5.134829        -2.557908        -0.412136
 H         4.656456        -2.097466         1.224162
 H         3.059200        -3.178293        -1.035242
 H         2.302329        -2.893538         0.591323
 H         1.521981        -1.201093        -1.726009
