19
Iteration:    11
 C        -0.153262         0.353484        -0.218928
 C         1.384764        -0.008789        -0.143157
 O         2.117320         0.303479         1.034112
 C         2.641511         0.927719        -0.085768
 C         3.437736        -0.011449        -0.895978
 O         4.616756        -0.752297        -0.325826
 C         4.160787        -1.855282         0.445634
 C         2.901809        -2.439093        -0.171258
 C         2.324684        -1.098748        -1.008858
 H        -0.428546         1.238865         0.299175
 H        -0.354126         0.523603        -1.259923
 H        -0.765743        -0.470851         0.085710
 H         2.557128         1.997066        -0.135258
 H         3.818306         0.454887        -1.812569
 H         5.024166        -2.564366         0.579149
 H         3.890151        -1.481844         1.424754
 H         2.854680        -3.200395        -0.872883
 H         2.199774        -2.659095         0.555452
 H         1.951812        -1.408588        -1.979984
