19
Iteration:  2570
 C        -0.025271         0.272890         0.089392
 C         1.467228        -0.057732        -0.212551
 O         2.234779         0.368964         0.939498
 C         2.582524         0.970509        -0.313792
 C         3.571563        -0.174205        -1.074957
 O         4.519984        -0.662531        -0.173860
 C         3.871872        -1.788802         0.587880
 C         2.821551        -2.456274        -0.330290
 C         2.375286        -1.106099        -1.002410
 H        -0.843115        -0.250755        -0.310101
 H        -0.109070         0.169835         1.224964
 H        -0.258469         1.295422        -0.052614
 H         2.581101         2.033865        -0.203193
 H         4.009695         0.111663        -2.060204
 H         4.832942        -2.431600         0.815778
 H         3.476533        -1.376336         1.516765
 H         3.330244        -3.079832        -1.055834
 H         1.998307        -2.954557         0.164554
 H         1.797584        -1.079520        -1.940855
