19
Iteration:  2633
 C        -0.000663         0.272454        -0.290026
 C         1.428044         0.057462        -0.074561
 O         2.174021         0.446022         1.060250
 C         2.583496         0.977846        -0.192001
 C         3.417486        -0.145340        -0.898559
 O         4.575437        -0.734217        -0.275571
 C         4.209224        -1.940536         0.311874
 C         2.781101        -2.398940        -0.204874
 C         2.218061        -1.053482        -0.830023
 H        -0.338871        -0.665557        -0.790120
 H        -0.462176         0.065995         0.752044
 H        -0.271827         1.202664        -0.800119
 H         2.768252         2.018527        -0.116375
 H         3.830084         0.225932        -1.829121
 H         4.913559        -2.738555         0.144436
 H         4.194285        -1.870230         1.405278
 H         2.795453        -3.230055        -0.891116
 H         2.132139        -2.658822         0.699077
 H         1.672753        -1.297923        -1.713079
