19
Iteration:    55
 C         0.068189         0.433769        -0.420996
 C         1.419611        -0.024364        -0.056804
 O         1.983015         0.323228         1.102972
 C         2.624573         0.882219        -0.021358
 C         3.340094        -0.121421        -0.892921
 O         4.563281        -0.641795        -0.388289
 C         4.293448        -1.882407         0.377613
 C         2.961336        -2.382841        -0.195985
 C         2.123520        -1.210825        -0.789378
 H        -0.080839         1.312856         0.168567
 H         0.102495         0.799868        -1.417519
 H        -0.732016        -0.255047        -0.318520
 H         2.694230         1.968550        -0.102750
 H         3.539389         0.280429        -1.897231
 H         5.140553        -2.620936         0.227651
 H         4.285421        -1.639939         1.434711
 H         3.139723        -2.999168        -0.998163
 H         2.522378        -3.006936         0.440402
 H         1.535194        -1.407929        -1.690323
