19
Iteration:   901
 C        -0.068002         0.234888        -0.295281
 C         1.493021         0.120385        -0.271605
 O         1.986088         0.158800         1.036017
 C         2.704501         0.910415         0.038730
 C         3.476118        -0.103778        -0.890836
 O         4.591743        -0.830463        -0.570090
 C         4.251812        -1.818453         0.384025
 C         2.720346        -2.105006         0.059428
 C         2.296656        -1.068449        -0.914882
 H        -0.332564        -0.799853         0.070279
 H        -0.432766         0.778778         0.597965
 H        -0.464760         0.508027        -1.317134
 H         2.730770         1.963898         0.412605
 H         3.713857         0.330125        -1.868274
 H         4.995782        -2.520024         0.308471
 H         4.258152        -1.452775         1.464260
 H         2.447081        -3.125273        -0.206180
 H         2.245991        -1.880347         0.974076
 H         1.963921        -1.436512        -1.944348
