19
Iteration:  3483charge 0 multiplicity 1
 C        -0.092807         0.220980        -0.198528
 C         1.470433         0.034304        -0.230622
 O         2.113723         0.310379         0.963020
 C         2.671947         0.863080        -0.290649
 C         3.476952        -0.217148        -1.073510
 O         4.637615        -0.698043        -0.459680
 C         4.220437        -1.717479         0.547705
 C         2.699771        -2.199035         0.209737
 C         2.226115        -1.226884        -0.909651
 H        -0.515011         0.090145        -1.150567
 H        -0.543715        -0.400849         0.595354
 H        -0.396845         1.216484         0.100498
 H         2.871230         1.916348        -0.214656
 H         3.763555         0.150161        -2.052566
 H         5.046790        -2.460157         0.572119
 H         4.279545        -1.170384         1.545947
 H         2.734286        -3.266126        -0.091545
 H         1.984822        -1.889744         0.987266
 H         1.548993        -1.416209        -1.737475
