19
Iteration:  4830charge 0 multiplicity 1
 C        -0.159014         0.374354        -0.423727
 C         1.359815        -0.037537        -0.295404
 O         1.984617         0.360914         0.977985
 C         2.555242         0.858497        -0.258000
 C         3.455682        -0.228050        -0.962930
 O         4.706325        -0.663931        -0.396944
 C         4.365122        -1.958959         0.280032
 C         2.842615        -2.076283         0.459450
 C         2.285214        -1.231664        -0.754552
 H        -0.675340        -0.097179        -1.269087
 H        -0.609766         0.113099         0.449421
 H        -0.386403         1.454850        -0.447889
 H         2.466153         1.981423        -0.389039
 H         3.767286        -0.012125        -2.020075
 H         4.778040        -2.643008        -0.449159
 H         4.724730        -2.366214         1.265285
 H         2.609151        -3.093074         0.603383
 H         2.635587        -1.614019         1.437587
 H         2.043638        -1.613049        -1.744868
