19
Iteration:  4110charge 0 multiplicity 1
 C        -0.051061         0.227635        -0.265606
 C         1.425417         0.022969        -0.172195
 O         2.106530         0.477247         1.026592
 C         2.593157         0.858091        -0.334157
 C         3.458530        -0.251140        -0.983779
 O         4.609309        -0.798285        -0.436639
 C         4.165293        -1.640634         0.613615
 C         2.878759        -2.291282         0.032800
 C         2.251134        -1.204505        -0.835126
 H        -0.436441         0.233831        -1.302286
 H        -0.586968        -0.565626         0.245111
 H        -0.328046         1.223616         0.123278
 H         2.511208         1.925913        -0.509266
 H         3.642932         0.231514        -1.955344
 H         4.846204        -2.473124         0.571378
 H         4.074919        -1.032445         1.475533
 H         3.261197        -3.091769        -0.553677
 H         2.119763        -2.681561         0.697134
 H         1.655850        -1.621156        -1.625071
