19
Iteration:  4273charge 0 multiplicity 1
 C        -0.047603         0.275903        -0.221671
 C         1.425742        -0.001636        -0.222859
 O         2.213521         0.395503         1.040990
 C         2.565331         0.837829        -0.410954
 C         3.382786        -0.216837        -1.067380
 O         4.565682        -0.664340        -0.284077
 C         4.251993        -1.774715         0.592500
 C         2.808119        -2.250693         0.024549
 C         2.221691        -1.179435        -0.848677
 H        -0.329333        -0.217693        -1.224711
 H        -0.655873        -0.355617         0.486076
 H        -0.409879         1.340669        -0.346707
 H         2.512083         1.920293        -0.489657
 H         3.795791         0.053544        -2.083840
 H         4.991712        -2.640709         0.414546
 H         4.285254        -1.377948         1.632384
 H         3.059015        -3.290622        -0.388685
 H         2.112831        -2.461549         0.892623
 H         1.741744        -1.283724        -1.872545
