19
Iteration:  4725
 C        -0.102146         0.173959        -0.035446
 C         1.444194        -0.043134        -0.289578
 O         2.211528         0.502474         0.793268
 C         2.602401         0.954685        -0.499679
 C         3.436297        -0.236778        -0.997169
 O         4.551625        -0.607010        -0.136402
 C         4.190367        -1.863818         0.563441
 C         2.785421        -2.277917         0.065206
 C         2.260120        -1.194006        -0.866353
 H        -0.506296         0.655175        -0.960984
 H        -0.669663        -0.798937         0.233510
 H        -0.124389         1.011926         0.642054
 H         2.609214         2.020447        -0.834666
 H         3.905120        -0.064149        -1.995250
 H         4.840109        -2.779686         0.260464
 H         4.190338        -1.679058         1.649843
 H         2.961824        -3.221106        -0.569140
 H         2.157685        -2.544329         0.945986
 H         1.891771        -1.407437        -1.895261
