19
Iteration:  3378charge 0 multiplicity 1
 C        -0.026580         0.317890         0.017549
 C         1.438766        -0.061490        -0.232037
 O         2.294389         0.563769         0.853208
 C         2.591515         0.850563        -0.511945
 C         3.457715        -0.261221        -1.048293
 O         4.401344        -0.550783        -0.006547
 C         4.156143        -1.867173         0.502303
 C         2.861481        -2.446954        -0.140260
 C         2.238064        -1.211438        -0.875043
 H        -0.790735         0.392267        -0.826302
 H        -0.550431        -0.286070         0.759276
 H         0.144937         1.326689         0.431362
 H         2.480105         1.889001        -0.801863
 H         3.910689        -0.094114        -2.063613
 H         5.073532        -2.386268         0.261009
 H         3.990818        -1.775432         1.543818
 H         2.896800        -3.192319        -0.900965
 H         2.251711        -2.879179         0.607719
 H         1.721512        -1.369641        -1.827918
