19
Iteration:  2391charge 0 multiplicity 1
 C        -0.037430         0.214938        -0.532164
 C         1.429392         0.095402        -0.159983
 O         1.887372         0.423859         1.133344
 C         2.597157         0.978827        -0.072839
 C         3.512190        -0.081339        -0.786311
 O         4.689755        -0.739447        -0.398495
 C         4.327980        -2.156411        -0.050496
 C         2.759804        -2.182953         0.274421
 C         2.271789        -1.087869        -0.672815
 H        -0.001642         0.494770        -1.585705
 H        -0.444769        -0.765488        -0.477234
 H        -0.674131         1.019366        -0.153115
 H         2.617965         2.053559        -0.129252
 H         3.646300         0.320585        -1.797000
 H         4.467584        -2.687750        -1.012183
 H         4.968948        -2.419225         0.807027
 H         2.409279        -3.190271         0.145435
 H         2.464999        -1.943060         1.317475
 H         1.843780        -1.528358        -1.584461
