19
Iteration:  2135
 C        -0.102028         0.455669        -0.385505
 C         1.382279        -0.038141        -0.138980
 O         2.028579         0.340384         1.114255
 C         2.566474         0.931263        -0.163090
 C         3.452727        -0.090670        -0.842566
 O         4.569161        -0.580607        -0.183257
 C         4.380453        -1.986028         0.150969
 C         2.933378        -2.451479        -0.186190
 C         2.198320        -1.166705        -0.714644
 H        -0.793658        -0.032587         0.318596
 H        -0.140610         1.562094        -0.141965
 H        -0.508658         0.102822        -1.331962
 H         2.468926         1.992645        -0.343665
 H         3.746970         0.227949        -1.841496
 H         5.297696        -2.597262        -0.389262
 H         4.492989        -2.007546         1.272374
 H         2.902567        -3.388025        -0.807854
 H         2.372371        -2.724859         0.699627
 H         1.719764        -1.467789        -1.682600
