19
Iteration:  3538
 C        -0.066438         0.434360        -0.524001
 C         1.371011         0.036873        -0.099671
 O         1.992318         0.477057         1.105281
 C         2.520071         0.803417        -0.229651
 C         3.340896        -0.258193        -1.004901
 O         4.615981        -0.640032        -0.396635
 C         4.414370        -1.933117         0.186934
 C         2.955550        -2.270174         0.289080
 C         2.256924        -1.270207        -0.651091
 H        -0.152135         0.198799        -1.538564
 H        -0.920825        -0.053814        -0.046573
 H        -0.077786         1.495068        -0.368510
 H         2.561581         1.874122        -0.369029
 H         3.483135        -0.003383        -2.044007
 H         5.012691        -2.768716        -0.201533
 H         4.608313        -1.758822         1.271529
 H         2.929543        -3.313930        -0.130703
 H         2.469952        -2.286296         1.268238
 H         1.705289        -1.619682        -1.499316
