19
Iteration:  4482
 C        -0.036672         0.135751        -0.405787
 C         1.434162         0.045552        -0.162285
 O         2.109064         0.558350         0.940689
 C         2.573497         0.986083        -0.392405
 C         3.462407        -0.142084        -0.906927
 O         4.559078        -0.606219        -0.150358
 C         4.318563        -1.989813         0.083738
 C         2.756951        -2.233181         0.293524
 C         2.204550        -1.284666        -0.653343
 H        -0.325773        -0.253375        -1.375031
 H        -0.450116        -0.432692         0.378468
 H        -0.471133         1.166492        -0.309161
 H         2.729718         2.059724        -0.598597
 H         3.721292        -0.326059        -1.990309
 H         4.691972        -2.534609        -0.799292
 H         4.911250        -2.301287         1.005748
 H         2.366426        -3.252265         0.149450
 H         2.630214        -2.167606         1.450338
 H         1.806471        -1.720413        -1.553742
