19
Iteration:  3094
 C        -0.060134         0.205931         0.065753
 C         1.419808        -0.005489        -0.139591
 O         2.303385         0.723832         0.826159
 C         2.567023         0.952313        -0.556603
 C         3.484884        -0.240060        -1.063100
 O         4.487769        -0.687067        -0.047794
 C         4.126488        -1.955224         0.563849
 C         2.779425        -2.373310        -0.182041
 C         2.292277        -1.208818        -0.899479
 H        -0.652649        -0.694534        -0.129486
 H        -0.337214         0.448105         1.075197
 H        -0.298947         1.038316        -0.616728
 H         2.664081         2.039784        -0.705823
 H         3.871303        -0.041634        -2.096967
 H         5.020402        -2.638882         0.382520
 H         3.916650        -1.965512         1.669759
 H         2.880385        -3.290605        -0.872794
 H         2.102102        -2.908759         0.475595
 H         1.727148        -1.396163        -1.826425
