19
Iteration:  3776
 C        -0.108952         0.071117        -0.172192
 C         1.484486         0.038069        -0.186514
 O         2.310103         0.296991         1.002444
 C         2.649722         0.891719        -0.344826
 C         3.508539        -0.170865        -1.098392
 O         4.566864        -0.675473        -0.354615
 C         4.062116        -1.667645         0.616413
 C         2.695955        -2.212228         0.044473
 C         2.274987        -1.091858        -0.962451
 H        -0.370379         0.218111        -1.206240
 H        -0.448060        -0.950219         0.196067
 H        -0.668469         0.748707         0.475051
 H         2.780539         1.991158        -0.170925
 H         3.871579         0.037119        -2.147222
 H         4.805025        -2.458413         0.724083
 H         3.884202        -1.340922         1.642536
 H         2.502337        -3.151086        -0.410984
 H         1.951995        -2.226272         0.884822
 H         1.733768        -1.441761        -1.843938
