19
Iteration:   657
 C        -0.046962         0.483582        -0.213715
 C         1.409227         0.056345        -0.203199
 O         1.928888         0.329095         1.113067
 C         2.584863         0.913000        -0.181363
 C         3.413746        -0.163011        -0.976487
 O         4.652402        -0.722118        -0.327833
 C         4.204060        -1.896392         0.458399
 C         3.011723        -2.391669        -0.197956
 C         2.264998        -1.208768        -0.894597
 H        -0.334588         0.039038         0.837353
 H        -0.009566         1.633761        -0.181454
 H        -0.833683         0.100931        -0.913580
 H         2.524817         2.026017        -0.278845
 H         3.693832         0.189071        -1.984632
 H         5.038567        -2.664471         0.490547
 H         3.980306        -1.538011         1.526272
 H         3.268419        -3.016874        -1.034260
 H         2.325365        -2.884799         0.575945
 H         1.807896        -1.450227        -1.818885
