19
Iteration:  3806
 C        -0.022358         0.194121        -0.244110
 C         1.449994        -0.002186        -0.271161
 O         2.091626         0.462350         1.003728
 C         2.539577         0.922073        -0.343111
 C         3.429815        -0.113518        -0.974799
 O         4.579398        -0.673405        -0.355729
 C         4.211138        -1.930064         0.493431
 C         2.833025        -2.289456         0.114261
 C         2.306634        -1.138199        -0.813000
 H        -0.464409         0.485042        -1.210738
 H        -0.428054        -0.723322         0.116823
 H        -0.285294         1.005108         0.445090
 H         2.650543         2.057528        -0.509372
 H         3.787924         0.060724        -2.013963
 H         4.975843        -2.616711         0.022190
 H         4.299866        -1.796672         1.606387
 H         2.587099        -3.158185        -0.496107
 H         2.286736        -2.414705         1.096180
 H         1.744799        -1.561632        -1.690475
