19
Iteration:   828
 C         0.008183         0.489759        -0.460271
 C         1.429433        -0.106820        -0.048351
 O         2.281734         0.237056         1.180917
 C         2.526776         0.870881        -0.145487
 C         3.312570        -0.155632        -0.993908
 O         4.508712        -0.569842        -0.326216
 C         4.191032        -1.788574         0.421537
 C         2.892325        -2.395290        -0.204127
 C         2.183909        -1.192224        -0.754785
 H        -0.783086        -0.038990         0.006701
 H        -0.064300         1.554348        -0.059312
 H         0.006890         0.392782        -1.526375
 H         2.443352         1.988916        -0.231386
 H         3.628021         0.106281        -2.043297
 H         5.084058        -2.507307         0.350315
 H         4.111110        -1.496336         1.486756
 H         3.283064        -3.151058        -0.967094
 H         2.274312        -2.945860         0.516909
 H         1.702105        -1.578627        -1.697742
