19
Iteration:  3561charge 0 multiplicity 1
 C         0.054700         0.204636        -0.605943
 C         1.444815         0.058167        -0.095458
 O         2.035113         0.519067         1.041378
 C         2.573340         0.986900        -0.160709
 C         3.339915        -0.146778        -0.915077
 O         4.572308        -0.653905        -0.392887
 C         4.422849        -1.990519         0.108019
 C         2.804290        -2.285900         0.319738
 C         2.114910        -1.253723        -0.564310
 H        -0.000382         0.133107        -1.656145
 H        -0.594912        -0.568316        -0.224373
 H        -0.258514         1.146136        -0.213494
 H         2.754464         2.066280        -0.377308
 H         3.435987        -0.048474        -1.991172
 H         4.871050        -2.767918        -0.570838
 H         4.970795        -1.977365         1.081379
 H         2.626252        -3.360465         0.035141
 H         2.512122        -2.158226         1.336274
 H         1.764461        -1.503419        -1.547782
