19
Iteration:  4051
 C        -0.108096         0.086488        -0.214100
 C         1.454265         0.061546        -0.232865
 O         2.085681         0.459972         0.929562
 C         2.612831         0.967731        -0.324612
 C         3.451280        -0.221499        -1.017629
 O         4.613045        -0.664188        -0.259464
 C         4.265490        -1.884855         0.423823
 C         2.755623        -2.222662         0.106954
 C         2.324122        -1.164665        -0.838775
 H        -0.499912        -0.315433        -1.165636
 H        -0.620219        -0.327673         0.694345
 H        -0.349588         1.163902        -0.168295
 H         2.745499         2.061954        -0.304595
 H         3.716798         0.017732        -2.072359
 H         4.935422        -2.719355         0.355690
 H         4.314954        -1.694756         1.502889
 H         2.533514        -3.254262        -0.313375
 H         2.093255        -1.982813         0.942339
 H         1.753981        -1.474181        -1.756147
