19
Iteration:  4473
 C        -0.079383         0.196046        -0.366427
 C         1.393666         0.016401        -0.195264
 O         2.138279         0.505593         0.929256
 C         2.575997         0.918961        -0.382701
 C         3.427899        -0.238732        -0.975141
 O         4.550364        -0.595320        -0.105012
 C         4.289367        -1.995619         0.106468
 C         2.840917        -2.229576         0.318353
 C         2.252639        -1.165584        -0.674662
 H        -0.297466        -0.311011        -1.275076
 H        -0.647665        -0.283653         0.391113
 H        -0.380235         1.239733        -0.368216
 H         2.578501         2.006688        -0.563976
 H         3.660905        -0.010222        -2.063684
 H         4.651689        -2.630479        -0.692043
 H         4.934034        -2.155567         0.989764
 H         2.574009        -3.229039        -0.018818
 H         2.430505        -1.864912         1.306458
 H         1.927897        -1.671582        -1.577463
