19
Iteration:  2527charge 0 multiplicity 1
 C         0.021221        -0.089509        -0.126997
 C         1.491997         0.090581        -0.144083
 O         2.307486         0.499489         1.021662
 C         2.661166         1.072352        -0.307885
 C         3.501928        -0.107268        -1.078419
 O         4.531724        -0.814546        -0.259072
 C         3.988908        -1.874330         0.523544
 C         2.599144        -2.267230        -0.146789
 C         2.327139        -0.984178        -0.890368
 H        -0.262671        -0.210522        -1.111318
 H        -0.108567        -1.021968         0.466404
 H        -0.505679         0.685814         0.319115
 H         2.690585         2.129117        -0.352121
 H         3.933583         0.070749        -2.085204
 H         4.761430        -2.677297         0.746682
 H         3.609859        -1.353597         1.390111
 H         2.616597        -3.033320        -0.954249
 H         1.747981        -2.549064         0.492407
 H         1.865020        -1.407056        -1.785776
