19
Iteration:  2547charge 0 multiplicity 1
 C         0.031418         0.005147         0.014724
 C         1.476338         0.050341        -0.214226
 O         2.301943         0.445688         0.958880
 C         2.722953         0.980470        -0.321593
 C         3.539529        -0.102428        -0.944235
 O         4.548270        -0.779911        -0.261617
 C         3.847648        -1.761867         0.633929
 C         2.751152        -2.296835        -0.281452
 C         2.160212        -1.059856        -1.001242
 H        -0.423043        -0.472800        -0.849581
 H        -0.249864        -0.560634         0.968353
 H        -0.459453         0.954177         0.077232
 H         2.771984         2.035486        -0.467477
 H         3.943325         0.174137        -1.922885
 H         4.590332        -2.657404         0.604243
 H         3.699975        -1.319981         1.643189
 H         3.153296        -3.036820        -0.931091
 H         2.009407        -2.749916         0.420582
 H         1.879344        -1.125946        -2.057628
