19
Iteration:  2529charge 0 multiplicity 1
 C         0.010314        -0.092413        -0.117105
 C         1.500141         0.082583        -0.142574
 O         2.309404         0.495638         1.004499
 C         2.665176         1.066694        -0.302869
 C         3.504462        -0.113856        -1.074763
 O         4.530820        -0.812879        -0.260789
 C         3.984844        -1.862375         0.532620
 C         2.586510        -2.263671        -0.142515
 C         2.340160        -0.976307        -0.896528
 H        -0.306858        -0.287393        -1.120801
 H        -0.079438        -0.967471         0.511189
 H        -0.492987         0.762498         0.321564
 H         2.711905         2.151603        -0.318798
 H         3.938845         0.087429        -2.082317
 H         4.712495        -2.625431         0.740853
 H         3.601682        -1.369803         1.416219
 H         2.689996        -3.034367        -1.000221
 H         1.755445        -2.672248         0.407268
 H         1.799704        -1.380121        -1.774089
