19
Iteration:  4584
 C        -0.068940         0.340507        -0.409783
 C         1.413198        -0.017594        -0.193854
 O         2.212462         0.366451         0.977367
 C         2.491083         0.904229        -0.366029
 C         3.379640        -0.266912        -0.946567
 O         4.572985        -0.567502        -0.196639
 C         4.339075        -1.959640         0.225786
 C         2.837828        -2.097984         0.269847
 C         2.187647        -1.291613        -0.704280
 H        -0.244895         0.389913        -1.458693
 H        -0.735635        -0.459038        -0.089326
 H        -0.392605         1.269791        -0.122049
 H         2.488229         1.968131        -0.515744
 H         3.614258        -0.063923        -2.064197
 H         4.824897        -2.742048        -0.448514
 H         4.817823        -2.013804         1.201900
 H         2.701769        -3.228123         0.185878
 H         2.418430        -1.819341         1.262135
 H         1.851927        -1.744511        -1.662794
