19
Iteration:   214charge 0 multiplicity 1
 C        -0.055853         0.212559        -0.160204
 C         1.430555        -0.001423        -0.049893
 O         2.194217         0.456601         1.076767
 C         2.485639         1.113579        -0.232865
 C         3.506544        -0.094888        -0.959842
 O         4.521035        -0.718657        -0.120541
 C         4.084697        -1.996337         0.450263
 C         2.948064        -2.429416        -0.428839
 C         2.299736        -1.096718        -0.919528
 H        -0.314809         1.165739         0.349617
 H        -0.243666         0.427542        -1.305135
 H        -0.810524        -0.606709         0.236014
 H         2.267894         2.160329        -0.391931
 H         3.992202         0.156263        -1.907251
 H         4.984115        -2.651126         0.419695
 H         3.778404        -1.940964         1.522734
 H         3.364146        -2.861195        -1.426349
 H         2.235923        -3.283228         0.010093
 H         1.776577        -1.189516        -1.907065
