19
Iteration:  1907charge 0 multiplicity 1
 C         0.029512         0.013322        -0.154783
 C         1.499721         0.070308        -0.229959
 O         2.204418         0.226125         0.992097
 C         2.733489         0.930611        -0.037410
 C         3.511702        -0.060026        -0.976210
 O         4.509221        -0.715765        -0.339432
 C         3.954995        -1.694072         0.538233
 C         2.688799        -2.221809        -0.199246
 C         2.241268        -1.072002        -1.004812
 H        -0.202215        -0.972904         0.219465
 H        -0.278168         0.783663         0.566995
 H        -0.429480         0.163530        -1.156729
 H         3.111870         1.910698         0.151026
 H         3.876276         0.499966        -1.873316
 H         4.815621        -2.467411         0.671564
 H         3.699122        -1.142112         1.469078
 H         3.063570        -2.956838        -0.979131
 H         2.050129        -2.631838         0.597711
 H         1.824554        -1.283090        -2.068478
