19
Iteration:  3832
 C        -0.111159         0.301231        -0.330221
 C         1.357817        -0.009841        -0.169166
 O         2.011767         0.570562         0.984512
 C         2.572273         0.910939        -0.266840
 C         3.372312        -0.193518        -0.883836
 O         4.680808        -0.667428        -0.291755
 C         4.399896        -1.929747         0.319134
 C         2.894599        -2.360360         0.122690
 C         2.222936        -1.240953        -0.804774
 H        -0.328498         0.324409        -1.401394
 H        -0.870686        -0.367255         0.188844
 H        -0.219225         1.362076        -0.137093
 H         2.533202         1.970292        -0.428510
 H         3.756120        -0.042806        -1.911190
 H         4.933138        -2.628639        -0.371998
 H         4.649876        -1.998124         1.378973
 H         2.681121        -3.274171        -0.413726
 H         2.482251        -2.364822         1.146636
 H         1.662200        -1.489961        -1.698560
