19
Iteration:  1840
 C        -0.060086         0.272160        -0.180705
 C         1.429946         0.035208        -0.222433
 O         1.975335         0.431075         1.069974
 C         2.631282         0.944429        -0.204721
 C         3.483545        -0.206191        -0.869950
 O         4.553955        -0.646375        -0.154691
 C         4.344094        -1.964917         0.188027
 C         2.788520        -2.342598        -0.109256
 C         2.267999        -1.096026        -0.906427
 H        -0.337907        -0.628075         0.292103
 H        -0.419701         1.156226         0.271960
 H        -0.433131         0.264768        -1.254175
 H         2.719683         2.059081        -0.189120
 H         3.899967         0.194927        -1.837070
 H         5.166281        -2.615768        -0.242217
 H         4.304723        -1.965941         1.325553
 H         2.800636        -3.135077        -0.900969
 H         2.184566        -2.550204         0.799655
 H         1.881596        -1.366984        -1.961082
