19
Iteration:  4049charge 0 multiplicity 1
 C        -0.125809         0.108149        -0.207529
 C         1.443938         0.054143        -0.236088
 O         2.079809         0.444901         0.922072
 C         2.604909         0.973200        -0.327483
 C         3.465544        -0.225837        -1.010391
 O         4.623285        -0.649865        -0.266215
 C         4.250293        -1.891142         0.420098
 C         2.756991        -2.234610         0.111820
 C         2.339863        -1.163461        -0.830674
 H        -0.545799        -0.283399        -1.116856
 H        -0.599054        -0.373232         0.713253
 H        -0.355433         1.182027        -0.156703
 H         2.784616         2.046914        -0.380595
 H         3.798611        -0.023394        -2.040569
 H         4.961755        -2.729024         0.286710
 H         4.307025        -1.669823         1.542161
 H         2.546025        -3.266269        -0.280117
 H         2.089886        -1.947923         0.971722
 H         1.802509        -1.429316        -1.800137
