19
Iteration:  1582
 C         0.062348        -0.048841        -0.305349
 C         1.524183         0.055995        -0.115473
 O         2.146782         0.442507         1.100365
 C         2.551104         1.095873        -0.259038
 C         3.532744        -0.032189        -0.878244
 O         4.541064        -0.663522        -0.129733
 C         4.123613        -2.070312         0.114422
 C         2.579394        -2.307706        -0.008032
 C         2.380345        -0.995682        -0.847275
 H        -0.585009        -0.368319         0.573663
 H        -0.293288         0.969280        -0.600147
 H        -0.275465        -0.645816        -1.140731
 H         2.554269         2.199997        -0.498541
 H         3.812410         0.129185        -1.937049
 H         4.665211        -2.632180        -0.734294
 H         4.424640        -2.329124         1.124879
 H         2.443830        -3.277238        -0.567868
 H         2.035672        -2.265649         0.958709
 H         2.035391        -0.932713        -1.829738
