19
Iteration:    36
 C        -0.080021         0.514469        -0.285334
 C         1.336808         0.014665        -0.174797
 O         1.896477         0.374179         1.133036
 C         2.525975         0.854641        -0.140174
 C         3.466662        -0.190243        -0.863096
 O         4.686543        -0.746882        -0.386069
 C         4.304075        -1.875903         0.402236
 C         2.996516        -2.385957        -0.226769
 C         2.286710        -1.171298        -0.798608
 H        -0.184262         1.280672         0.582157
 H        -0.374422         1.026553        -1.244789
 H        -0.805499        -0.310887        -0.043883
 H         2.498472         1.968880        -0.144987
 H         3.646885         0.122699        -1.887121
 H         5.029774        -2.614874         0.237904
 H         4.248296        -1.553669         1.483919
 H         3.247060        -2.865425        -1.241621
 H         2.306327        -3.122649         0.422201
 H         1.880000        -1.429610        -1.796144
