19
Iteration:  2567
 C        -0.012710         0.241183         0.086916
 C         1.492282        -0.017186        -0.226357
 O         2.244959         0.381926         0.940481
 C         2.577797         0.949902        -0.296361
 C         3.541321        -0.188467        -1.074850
 O         4.529718        -0.692021        -0.166331
 C         3.891957        -1.784219         0.572992
 C         2.806093        -2.412961        -0.323949
 C         2.375687        -1.102307        -1.024647
 H        -0.880247        -0.386962        -0.345050
 H        -0.152193         0.052487         1.204647
 H        -0.355970         1.306152         0.019944
 H         2.662634         2.032166        -0.232291
 H         3.972615         0.152492        -1.998161
 H         4.786778        -2.330269         0.964497
 H         3.385299        -1.362979         1.463822
 H         3.288200        -3.000603        -1.061649
 H         1.937752        -2.928474         0.207868
 H         1.763326        -1.139203        -1.907654
