19
Iteration:  1263charge 0 multiplicity 1
 C        -0.030094        -0.048613        -0.163863
 C         1.437001         0.096046        -0.264234
 O         2.206269         0.406945         1.004763
 C         2.594366         1.044684        -0.212739
 C         3.587735        -0.013335        -0.939127
 O         4.417648        -0.706457         0.050599
 C         4.192925        -2.060427         0.126912
 C         2.696328        -2.206588        -0.097465
 C         2.329937        -0.974030        -0.944619
 H        -0.206792        -1.036102         0.185553
 H        -0.414411         0.744625         0.472648
 H        -0.572809         0.012602        -1.115957
 H         2.565520         2.162487        -0.144313
 H         4.109418         0.232620        -1.889820
 H         4.795529        -2.756165        -0.543570
 H         4.508101        -2.349744         1.151172
 H         2.349839        -3.227200        -0.597536
 H         2.097116        -2.171657         0.802965
 H         1.951893        -1.193419        -1.979928
