19
Iteration:  1642
 C        -0.066655         0.516718        -0.194823
 C         1.375078        -0.020237        -0.313726
 O         2.046664         0.231178         0.982692
 C         2.510101         0.893198        -0.208395
 C         3.448393        -0.079008        -0.893710
 O         4.567933        -0.574220        -0.040453
 C         4.356916        -1.962432         0.129003
 C         2.827387        -2.350086         0.029394
 C         2.281918        -1.236515        -0.901944
 H        -0.717037         0.026783         0.521002
 H         0.167118         1.511196         0.147861
 H        -0.533963         0.494074        -1.246553
 H         2.460954         1.952548        -0.392959
 H         3.792765         0.391545        -1.841157
 H         4.978876        -2.531599        -0.550867
 H         4.783557        -2.299709         1.143937
 H         2.943725        -3.344777        -0.463742
 H         2.383988        -2.496090         1.076594
 H         1.965774        -1.688133        -1.936630
