19
Iteration:  1047
 C        -0.015323         0.021241        -0.062937
 C         1.491942         0.045459        -0.217226
 O         2.343836         0.551822         1.013300
 C         2.602109         1.059205        -0.284941
 C         3.481806        -0.104620        -0.938558
 O         4.445574        -0.614801         0.000681
 C         4.102546        -2.018365         0.317192
 C         2.687089        -2.408790        -0.258903
 C         2.250455        -1.055448        -0.970751
 H        -0.309950        -0.693926         0.748390
 H        -0.440195         1.068056         0.101307
 H        -0.364128        -0.437399        -1.014024
 H         2.570300         2.129418        -0.484229
 H         3.877881         0.137752        -1.937050
 H         4.884834        -2.618950        -0.116303
 H         4.001265        -2.060407         1.431257
 H         2.841938        -3.122342        -1.062569
 H         2.044375        -2.921167         0.421333
 H         1.923631        -1.253994        -2.031540
