19
Iteration:  3612charge 0 multiplicity 1
 C        -0.089850         0.147466        -0.285957
 C         1.395900         0.103516        -0.366847
 O         1.923336         0.458337         0.927051
 C         2.592792         0.985973        -0.258365
 C         3.521343        -0.149201        -0.866544
 O         4.673366        -0.680211        -0.149176
 C         4.244170        -2.120240         0.012813
 C         2.835447        -2.067855         0.318633
 C         2.291651        -1.190009        -0.727346
 H        -0.555324         0.244240        -1.294007
 H        -0.377824        -0.909029         0.137871
 H        -0.471911         0.907988         0.446903
 H         2.868513         1.996937        -0.522560
 H         3.834146         0.002694        -1.915163
 H         4.517746        -2.537181        -0.962037
 H         4.827534        -2.654768         0.788888
 H         2.159281        -2.940912         0.506418
 H         2.925562        -1.631929         1.377198
 H         2.087231        -1.766066        -1.648919
