19
Iteration:  3217charge 0 multiplicity 1
 C        -0.057482         0.518680        -0.330019
 C         1.341818        -0.101975        -0.101316
 O         2.131971         0.400651         0.990848
 C         2.574664         0.855823        -0.349942
 C         3.378370        -0.276043        -1.009807
 O         4.620269        -0.730932        -0.484621
 C         4.276409        -1.668344         0.538919
 C         2.935235        -2.397049         0.143285
 C         2.192563        -1.258893        -0.705930
 H         0.098247         1.173194        -1.242538
 H        -0.928831        -0.033665        -0.476664
 H        -0.231129         1.279291         0.399794
 H         2.574182         1.960332        -0.456121
 H         3.392250        -0.237712        -2.075820
 H         5.009789        -2.503850         0.507417
 H         4.210113        -1.131742         1.501961
 H         2.873056        -3.293598        -0.509915
 H         2.260095        -2.659916         0.980513
 H         1.874184        -1.673311        -1.677602
