19
Iteration:  4409charge 0 multiplicity 1
 C        -0.138677         0.254646        -0.283902
 C         1.394647         0.022676        -0.254599
 O         2.165607         0.462706         0.936694
 C         2.560687         0.926472        -0.327934
 C         3.406941        -0.206544        -1.037028
 O         4.566004        -0.680387        -0.254347
 C         4.344735        -1.884959         0.398741
 C         2.822777        -2.239155         0.176400
 C         2.280220        -1.230497        -0.798020
 H        -0.555847        -0.059012        -1.264398
 H        -0.676236        -0.282790         0.596897
 H        -0.389655         1.306692        -0.030576
 H         2.577530         2.037001        -0.365762
 H         3.822570         0.139280        -1.991518
 H         5.051776        -2.706790         0.052977
 H         4.391327        -1.821231         1.510428
 H         2.812973        -3.273397        -0.149094
 H         2.305645        -2.207322         1.177098
 H         1.764777        -1.688489        -1.668406
