19
Iteration:  3197charge 0 multiplicity 1
 C        -0.065163         0.382020        -0.207300
 C         1.402377         0.011804        -0.204644
 O         2.148444         0.458828         0.967089
 C         2.599217         0.849908        -0.355480
 C         3.426166        -0.248199        -1.070930
 O         4.624926        -0.805250        -0.442389
 C         4.187230        -1.718104         0.635725
 C         2.865282        -2.302923         0.083120
 C         2.188270        -1.232674        -0.779460
 H        -0.380824         0.834781        -1.129125
 H        -0.516211        -0.546186         0.105563
 H        -0.266565         1.137206         0.538536
 H         2.724016         1.887769        -0.668599
 H         3.664543         0.067316        -2.078534
 H         4.962967        -2.459384         0.831482
 H         3.979326        -1.057948         1.472298
 H         3.266976        -3.059636        -0.637406
 H         2.191830        -2.803928         0.836904
 H         1.625669        -1.694517        -1.610486
