19
Iteration:  3368
 C        -0.031414         0.350774        -0.005094
 C         1.520647        -0.084939        -0.213648
 O         2.284485         0.518275         0.883590
 C         2.535569         0.902624        -0.444689
 C         3.527071        -0.210811        -1.083100
 O         4.401914        -0.484745        -0.056819
 C         4.199727        -1.851821         0.465648
 C         2.715718        -2.486487        -0.122269
 C         2.218662        -1.281810        -0.843537
 H        -0.326281         0.012819        -1.050947
 H        -0.522951        -0.158521         0.781022
 H        -0.069664         1.444610         0.121689
 H         2.566493         1.970243        -0.649372
 H         3.869843        -0.311941        -2.138372
 H         4.985420        -2.582774         0.281007
 H         4.106883        -1.826725         1.503619
 H         3.173230        -3.245525        -0.695695
 H         2.123534        -2.863346         0.676802
 H         1.741452        -1.346780        -1.820535
