19
Iteration:  3565charge 0 multiplicity 1
 C         0.046016         0.174310        -0.592140
 C         1.429323         0.054198        -0.148090
 O         2.061033         0.534056         1.052297
 C         2.577603         1.008142        -0.160803
 C         3.334786        -0.138369        -0.903639
 O         4.582781        -0.655413        -0.378523
 C         4.396047        -2.012445         0.063542
 C         2.805922        -2.297461         0.342259
 C         2.158783        -1.238746        -0.568227
 H         0.026274         0.177316        -1.748370
 H        -0.583581        -0.647344        -0.224301
 H        -0.342044         1.151319        -0.204026
 H         2.612634         2.107264        -0.269056
 H         3.415437         0.064041        -2.025636
 H         4.863356        -2.841199        -0.509558
 H         4.795918        -2.021087         1.073803
 H         2.620100        -3.333236         0.166368
 H         2.503678        -2.127937         1.395386
 H         1.667395        -1.505880        -1.548428
