19
Iteration:  2225charge 0 multiplicity 1
 C         0.040765        -0.009734        -0.187117
 C         1.529932         0.037876        -0.114524
 O         2.213778         0.339877         1.127288
 C         2.614563         1.035792        -0.115172
 C         3.538735        -0.086183        -0.942012
 O         4.641203        -0.780183        -0.413990
 C         3.906159        -1.713965         0.521973
 C         2.696157        -2.291885        -0.249731
 C         2.259790        -1.072371        -1.018850
 H        -0.350047        -1.033064        -0.234995
 H        -0.393807         0.596504         0.599492
 H        -0.294446         0.430912        -1.107815
 H         2.635900         2.162948         0.021863
 H         3.774281         0.353413        -1.910621
 H         4.729778        -2.460255         0.946873
 H         3.508395        -1.200362         1.384106
 H         2.876882        -3.166322        -0.883261
 H         1.915785        -2.688759         0.327089
 H         1.759439        -1.078426        -2.015549
