19
Iteration:  2822
 C         0.045408        -0.061979         0.009992
 C         1.523134         0.070487        -0.241036
 O         2.305044         0.433166         0.963693
 C         2.777729         0.970141        -0.347370
 C         3.476669        -0.146395        -1.098364
 O         4.569708        -0.784607        -0.254927
 C         3.889767        -1.701218         0.611961
 C         2.602113        -2.225857        -0.137616
 C         2.232531        -1.097627        -0.965160
 H        -0.472650         0.897364         0.222729
 H        -0.564283        -0.465542        -0.871716
 H        -0.065482        -0.735681         0.914392
 H         2.757380         2.086059        -0.360965
 H         3.843743         0.211628        -2.046893
 H         4.696241        -2.420214         0.879115
 H         3.611209        -1.138469         1.466450
 H         2.981207        -2.995311        -0.863217
 H         1.794823        -2.497368         0.518766
 H         1.727877        -1.340426        -1.918801
