19
Iteration:  2769
 C        -0.031346         0.432075        -0.215921
 C         1.347845         0.040399        -0.164154
 O         2.140433         0.506245         1.027366
 C         2.613969         0.879070        -0.276018
 C         3.418014        -0.209128        -0.984355
 O         4.600715        -0.689211        -0.294909
 C         4.252064        -1.943536         0.399572
 C         2.889328        -2.413563        -0.105650
 C         2.154444        -1.183628        -0.710850
 H        -0.376846         1.172819        -0.967521
 H        -0.494429        -0.383331        -0.737950
 H        -0.628606         0.477322         0.717310
 H         2.606220         1.988159        -0.451224
 H         3.604026         0.007075        -2.056624
 H         5.106242        -2.690843         0.349790
 H         4.328001        -1.619263         1.445038
 H         3.026266        -3.211483        -0.841639
 H         2.285858        -2.959118         0.565264
 H         1.818626        -1.400497        -1.772011
