19
Iteration:   737
 C         0.021760        -0.099825        -0.165332
 C         1.494213         0.074031        -0.207315
 O         2.469287         0.390913         1.032918
 C         2.634672         1.010725        -0.201611
 C         3.486369        -0.086705        -1.008969
 O         4.527257        -0.671202        -0.223883
 C         3.941059        -1.807244         0.487737
 C         2.607796        -2.262755        -0.148927
 C         2.244986        -1.051297        -0.980377
 H        -0.172441        -1.212269         0.042381
 H        -0.696229         0.436760         0.449394
 H        -0.248456         0.059681        -1.266934
 H         2.600419         2.084098        -0.133966
 H         3.959625         0.223117        -1.960818
 H         4.663823        -2.549177         0.559840
 H         3.642388        -1.453813         1.582502
 H         2.539110        -3.127640        -0.821509
 H         1.785838        -2.361698         0.544458
 H         1.690931        -1.261557        -1.965481
