19
Iteration:  3431charge 0 multiplicity 1
 C         0.038333         0.035518        -0.035890
 C         1.520061         0.013048        -0.138885
 O         2.265802         0.694128         0.962617
 C         2.656511         0.926571        -0.462715
 C         3.434270        -0.225178        -1.004251
 O         4.568589        -0.791419        -0.323932
 C         3.943257        -1.712981         0.590452
 C         2.760536        -2.354613        -0.095013
 C         2.241648        -1.184060        -0.880203
 H        -0.291393         0.260844        -1.084725
 H        -0.271233        -1.003627         0.236221
 H        -0.594403         0.701699         0.568665
 H         2.665963         1.988930        -0.640596
 H         3.711883         0.014133        -2.065939
 H         4.756035        -2.403643         0.863849
 H         3.643743        -1.184899         1.512728
 H         2.951794        -3.156624        -0.833465
 H         2.079448        -2.665122         0.661918
 H         1.735701        -1.298871        -1.847594
