19
Iteration:  1630
 C        -0.096456         0.489753        -0.181381
 C         1.315084         0.054048        -0.216746
 O         2.032646         0.237151         0.919497
 C         2.543679         0.927002        -0.253063
 C         3.499837        -0.123658        -0.881629
 O         4.583428        -0.546524        -0.054168
 C         4.369930        -2.009444         0.191945
 C         2.865893        -2.370546        -0.027340
 C         2.307299        -1.218658        -0.887537
 H        -0.542023        -0.084636         0.607329
 H        -0.417657         1.528324        -0.110422
 H        -0.665192         0.170029        -1.107727
 H         2.754946         1.951423         0.034546
 H         3.908232         0.012717        -1.908651
 H         4.825991        -2.489459        -0.655705
 H         4.844818        -2.241940         1.246005
 H         2.609510        -3.296062        -0.616163
 H         2.166598        -2.403567         0.923286
 H         1.857612        -1.508848        -1.907333
