19
Iteration:  1337charge 0 multiplicity 1
 C        -0.094867         0.383354        -0.242600
 C         1.411616        -0.007560        -0.158229
 O         2.057151         0.607863         1.079445
 C         2.541911         0.958788        -0.260127
 C         3.482173        -0.177936        -0.813720
 O         4.451819        -0.617276         0.115490
 C         4.410327        -2.008534         0.018399
 C         2.908527        -2.520841        -0.284333
 C         2.236192        -1.228086        -0.793731
 H        -0.645494        -0.411897         0.290572
 H        -0.223274         1.401925         0.283056
 H        -0.659798         0.424139        -1.215242
 H         2.603560         2.032767        -0.543131
 H         3.980573        -0.048249        -1.822238
 H         5.155692        -2.245911        -0.783562
 H         4.807103        -2.541982         0.812778
 H         2.781991        -3.113536        -1.259844
 H         2.519123        -3.077826         0.594268
 H         1.643708        -1.380423        -1.763735
