19
Iteration:  3653
 C        -0.056667         0.251680        -0.301875
 C         1.452344         0.034157        -0.135197
 O         2.139153         0.501078         0.970306
 C         2.541826         0.894802        -0.443988
 C         3.460603        -0.188847        -0.926827
 O         4.524911        -0.532503        -0.023431
 C         4.303489        -2.074378         0.115386
 C         2.787995        -2.263251         0.078164
 C         2.254792        -1.204978        -0.716515
 H        -0.409636        -0.131233        -1.293487
 H        -0.565882        -0.418899         0.387000
 H        -0.353418         1.302439        -0.091730
 H         2.352414         1.924607        -0.532402
 H         3.765268        -0.072421        -2.011171
 H         4.889376        -2.627807        -0.655953
 H         4.665421        -2.266564         1.132043
 H         2.703021        -3.268591        -0.200684
 H         2.351354        -2.085982         1.087848
 H         1.908662        -1.562922        -1.715805
