19
Iteration:  1640charge 0 multiplicity 1
 C        -0.077712         0.514089        -0.187556
 C         1.360923         0.003106        -0.303554
 O         2.043111         0.225026         0.964529
 C         2.500183         0.902139        -0.210737
 C         3.458440        -0.074755        -0.895199
 O         4.581717        -0.571289        -0.038779
 C         4.355892        -1.966134         0.141167
 C         2.827666        -2.348260         0.020142
 C         2.291653        -1.259079        -0.901807
 H        -0.664781         0.001601         0.549360
 H         0.083031         1.581239         0.096534
 H        -0.470701         0.443549        -1.186673
 H         2.553425         1.987451        -0.363373
 H         3.809673         0.358404        -1.863244
 H         4.997500        -2.508700        -0.585043
 H         4.819015        -2.332501         1.168630
 H         2.893580        -3.367865        -0.471079
 H         2.327543        -2.557586         1.057215
 H         1.906857        -1.651461        -1.881591
