19
Iteration:   621charge 0 multiplicity 1
 C        -0.050610         0.198960        -0.511193
 C         1.499999         0.025295        -0.099475
 O         2.308021         0.148046         1.190051
 C         2.622718         0.946737        -0.024887
 C         3.393879        -0.036321        -0.958990
 O         4.556145        -0.731192        -0.452988
 C         4.088917        -1.830945         0.415654
 C         2.745764        -2.240478        -0.006074
 C         2.253880        -1.000551        -0.906709
 H        -0.756830         0.032505         0.303890
 H        -0.271233         1.246757        -0.820062
 H        -0.236811        -0.455354        -1.385288
 H         2.574271         2.017192         0.150161
 H         3.513293         0.476394        -1.929695
 H         4.909343        -2.671852         0.331483
 H         4.055228        -1.503289         1.389086
 H         2.746077        -3.277177        -0.489836
 H         2.109543        -2.342394         0.862622
 H         1.749487        -1.283138        -1.826345
