19
Iteration:  1409charge 0 multiplicity 1
 C        -0.070341         0.094347        -0.426933
 C         1.444084         0.115043        -0.286886
 O         1.859124         0.231301         1.048010
 C         2.743503         0.983584         0.110378
 C         3.543693        -0.003997        -0.772355
 O         4.711748        -0.687955        -0.361707
 C         4.224544        -2.059896        -0.029044
 C         2.666104        -2.092168         0.195567
 C         2.296820        -1.078573        -0.830941
 H        -0.576415        -0.498565         0.364095
 H        -0.458886         1.118326        -0.205685
 H        -0.504103        -0.229715        -1.324189
 H         2.956735         2.001851         0.447026
 H         3.801645         0.448710        -1.735782
 H         4.556356        -2.691542        -0.903909
 H         4.931965        -2.451540         0.865753
 H         2.424506        -3.125671        -0.088956
 H         2.284212        -1.632776         1.168720
 H         2.130237        -1.463739        -1.808561
