19
Iteration:   311
 C         0.072414         0.298500        -0.424448
 C         1.469759         0.045610        -0.088452
 O         2.088174         0.149450         1.191271
 C         2.679284         0.887861        -0.048985
 C         3.429332        -0.088924        -0.954554
 O         4.543209        -0.684317        -0.422474
 C         4.153009        -1.820667         0.415689
 C         2.773697        -2.267507        -0.128992
 C         2.228996        -1.074626        -0.882936
 H        -0.324058         1.238839        -0.109698
 H         0.041907         0.266277        -1.551275
 H        -0.588210        -0.510858        -0.069647
 H         2.742701         1.958138         0.062631
 H         3.517991         0.450031        -1.911078
 H         4.964750        -2.559228         0.327609
 H         4.097722        -1.363074         1.457357
 H         2.848078        -3.074461        -0.776350
 H         2.139443        -2.617596         0.750180
 H         1.644902        -1.332306        -1.847174
