19
Iteration:  3875charge 0 multiplicity 1
 C         0.028863         0.241395        -0.484069
 C         1.413907        -0.038180        -0.132059
 O         2.061284         0.480639         1.029576
 C         2.561719         0.906824        -0.228927
 C         3.415995        -0.181600        -0.915220
 O         4.546962        -0.553138        -0.161483
 C         4.344601        -2.023057         0.046951
 C         2.843562        -2.199944         0.263250
 C         2.161797        -1.250251        -0.749223
 H        -0.260915        -0.299552        -1.367993
 H        -0.635237        -0.066767         0.376805
 H        -0.109826         1.267413        -0.790874
 H         2.835001         1.940807        -0.366718
 H         3.568561         0.293387        -1.941936
 H         4.540677        -2.682138        -0.887712
 H         4.932296        -2.247404         0.959338
 H         2.759251        -3.288611         0.251489
 H         2.452914        -1.829460         1.237572
 H         1.799310        -1.714581        -1.681380
