19
Iteration:  1050charge 0 multiplicity 1
 C        -0.031733         0.003436        -0.057709
 C         1.490698         0.049039        -0.184153
 O         2.322160         0.529015         1.000941
 C         2.610772         1.063818        -0.287468
 C         3.502351        -0.086693        -0.957587
 O         4.451505        -0.620337        -0.030316
 C         4.070729        -2.049623         0.336043
 C         2.721364        -2.360843        -0.226639
 C         2.259214        -1.053373        -0.989082
 H        -0.366998        -0.699957         0.703582
 H        -0.377341         0.978129         0.059691
 H        -0.400198        -0.384417        -1.005902
 H         2.644968         2.177698        -0.392644
 H         3.899429         0.159328        -1.958456
 H         4.834536        -2.636965        -0.130997
 H         3.994378        -2.060323         1.375887
 H         2.809380        -3.098374        -1.014661
 H         1.958719        -2.863927         0.509800
 H         2.011644        -1.216927        -1.991701
