19
Iteration:  1777charge 0 multiplicity 1
 C         0.019878         0.326416        -0.416870
 C         1.434336         0.025329        -0.184389
 O         1.983989         0.309339         1.099193
 C         2.604119         0.915200        -0.105201
 C         3.444776        -0.159817        -0.846979
 O         4.513166        -0.575251        -0.044778
 C         4.377030        -2.030207        -0.114265
 C         2.796344        -2.217927         0.107943
 C         2.257166        -1.120052        -0.860223
 H        -0.537537        -0.240400         0.374279
 H        -0.348768         1.406476        -0.338033
 H        -0.394695        -0.045628        -1.399591
 H         2.756403         2.001006        -0.013355
 H         3.632161        -0.054207        -1.931511
 H         4.704552        -2.514228        -1.075399
 H         4.980094        -2.363523         0.643787
 H         2.526823        -3.222020        -0.221309
 H         2.684485        -2.302389         1.162815
 H         1.697143        -1.603139        -1.740942
