19
Iteration:   217charge 0 multiplicity 1
 C        -0.072862         0.217642        -0.140585
 C         1.436924        -0.011783        -0.087783
 O         2.170235         0.474972         1.057783
 C         2.481252         1.097399        -0.222245
 C         3.504736        -0.096165        -0.908988
 O         4.536140        -0.731397        -0.139964
 C         4.091162        -1.988573         0.456386
 C         2.943160        -2.438039        -0.430610
 C         2.310187        -1.081455        -0.932218
 H        -0.322841         1.147794         0.369542
 H        -0.341197         0.402119        -1.202443
 H        -0.756201        -0.565114         0.292981
 H         2.343225         2.196599        -0.384003
 H         4.024485         0.184239        -1.849995
 H         4.955251        -2.729871         0.372924
 H         3.814829        -1.901707         1.478866
 H         3.357083        -2.973291        -1.424054
 H         2.271120        -3.191150         0.032121
 H         1.882890        -1.182629        -1.891322
