19
Iteration:  1137
 C         0.001450         0.556502        -0.512482
 C         1.363677        -0.116272        -0.101182
 O         2.066952         0.149483         1.210930
 C         2.613616         0.745586         0.074085
 C         3.364016        -0.083161        -1.039921
 O         4.660231        -0.711921        -0.619076
 C         4.214562        -1.657740         0.509912
 C         2.889710        -2.316384        -0.027425
 C         2.221045        -1.195759        -0.799188
 H        -0.903494        -0.142004        -0.582166
 H        -0.273689         1.263241         0.237636
 H         0.078180         1.087855        -1.486527
 H         2.692268         1.865758         0.101691
 H         3.422435         0.375749        -2.042139
 H         5.051816        -2.334549         0.579887
 H         3.977221        -1.128601         1.441322
 H         3.154911        -3.036900        -0.770156
 H         2.255683        -2.918435         0.744770
 H         1.758606        -1.573015        -1.662631
