19
Iteration:  1020charge 0 multiplicity 1
 C        -0.013013         0.198756         0.012848
 C         1.494481        -0.011068        -0.036938
 O         2.220497         0.686136         0.946928
 C         2.594222         0.965211        -0.443957
 C         3.476933        -0.191630        -0.932003
 O         4.308395        -0.607850         0.150159
 C         4.169912        -2.070813         0.241588
 C         2.892051        -2.452882        -0.451983
 C         2.261914        -1.111793        -0.867489
 H        -0.467019        -0.221528         0.923122
 H        -0.152103         1.274110         0.073896
 H        -0.469385        -0.220361        -0.897283
 H         2.602565         2.032600        -0.741929
 H         3.951594        -0.048830        -1.921292
 H         5.131878        -2.567938        -0.178875
 H         4.127070        -2.326101         1.326417
 H         3.082579        -3.010527        -1.403307
 H         2.287154        -3.186262         0.176644
 H         1.783550        -1.203512        -1.883451
