19
Iteration:   755charge 0 multiplicity 1
 C        -0.046693        -0.174014        -0.098137
 C         1.476987         0.078921        -0.198619
 O         2.229881         0.335836         0.993851
 C         2.666961         1.039482        -0.240746
 C         3.622269        -0.056466        -1.015103
 O         4.594038        -0.821897        -0.284101
 C         3.955088        -1.824270         0.533052
 C         2.571448        -2.115376        -0.134150
 C         2.333525        -0.918906        -1.004759
 H        -0.172324        -1.191569         0.399106
 H        -0.368614         0.635051         0.587262
 H        -0.645403        -0.187005        -1.020148
 H         2.794956         2.116710        -0.299830
 H         3.865106         0.276521        -2.020206
 H         4.668045        -2.714770         0.434656
 H         3.982671        -1.530672         1.575762
 H         2.780464        -3.014450        -0.668485
 H         1.882699        -2.220951         0.792473
 H         1.945267        -1.073191        -1.965177
