19
Iteration:  3657charge 0 multiplicity 1
 C        -0.055082         0.266825        -0.324980
 C         1.472964         0.006121        -0.126186
 O         2.174812         0.521166         1.011324
 C         2.537988         0.853435        -0.470106
 C         3.422309        -0.225943        -0.919581
 O         4.514244        -0.534662        -0.025592
 C         4.306958        -2.035267         0.143454
 C         2.791240        -2.287056         0.050620
 C         2.247597        -1.144887        -0.741644
 H        -0.346301        -0.136076        -1.298363
 H        -0.600717        -0.414201         0.472977
 H        -0.434476         1.304051        -0.182518
 H         2.307981         1.950702        -0.525513
 H         3.700089        -0.097264        -1.978805
 H         4.986138        -2.565580        -0.534381
 H         4.784870        -2.150566         1.146816
 H         2.597566        -3.377915        -0.331546
 H         2.315865        -2.306919         1.080315
 H         1.842011        -1.508049        -1.674071
