19
Iteration:  2794charge 0 multiplicity 1
 C        -0.023741         0.142051        -0.096944
 C         1.472397         0.002468        -0.136429
 O         2.219195         0.546047         0.986912
 C         2.616290         1.010995        -0.314820
 C         3.434620        -0.119618        -0.988973
 O         4.584384        -0.846070        -0.351209
 C         4.070858        -1.882429         0.533012
 C         2.767045        -2.323474        -0.153696
 C         2.318002        -1.102273        -0.865350
 H        -0.356205         1.112666        -0.549449
 H        -0.537520        -0.504401        -0.769621
 H        -0.469879         0.015671         0.881197
 H         2.459961         2.050064        -0.452520
 H         3.776887         0.194070        -2.013503
 H         4.910617        -2.556144         0.747374
 H         3.747811        -1.447475         1.555188
 H         2.874394        -3.193000        -0.786441
 H         1.924855        -2.616137         0.608261
 H         1.820527        -1.318190        -1.841490
