19
Iteration:  2553
 C         0.016619         0.085171         0.079531
 C         1.441762         0.046273        -0.232450
 O         2.287167         0.419119         0.975777
 C         2.708966         0.943164        -0.323465
 C         3.501558        -0.104115        -0.966655
 O         4.543911        -0.775573        -0.208723
 C         3.898391        -1.759604         0.616031
 C         2.793318        -2.285202        -0.319709
 C         2.198551        -1.092149        -1.048156
 H        -0.391256        -0.532114        -0.788678
 H        -0.118599        -0.353043         1.042472
 H        -0.400573         1.143724        -0.006525
 H         2.745747         2.044694        -0.547208
 H         3.956881         0.161046        -1.929322
 H         4.562698        -2.543648         0.894239
 H         3.430529        -1.247986         1.477098
 H         3.070961        -3.103101        -1.052865
 H         2.053507        -2.785889         0.332574
 H         1.952689        -1.411732        -2.082087
