19
Iteration:  2060charge 0 multiplicity 1
 C        -0.174422         0.118573        -0.355648
 C         1.377577         0.107754        -0.289089
 O         1.987372         0.296216         1.001000
 C         2.685666         0.988046        -0.072526
 C         3.552222        -0.044083        -0.766734
 O         4.664198        -0.701281        -0.044131
 C         4.278508        -2.088396        -0.150766
 C         2.824219        -2.121953         0.172179
 C         2.236817        -1.063013        -0.908935
 H        -0.551341        -0.850487        -0.052653
 H        -0.396539         0.883239         0.452459
 H        -0.718114         0.348609        -1.270023
 H         2.576444         2.061935        -0.029147
 H         3.994972         0.456686        -1.674045
 H         4.632809        -2.451758        -1.034474
 H         4.870996        -2.680322         0.548501
 H         2.260422        -3.136398         0.250734
 H         2.550472        -1.821626         1.185214
 H         1.853334        -1.421662        -1.944934
