19
Iteration:  2074
 C        -0.067780         0.191724        -0.355486
 C         1.406648         0.015265        -0.204571
 O         1.988002         0.349063         1.055648
 C         2.509852         0.968464        -0.123421
 C         3.545521        -0.053674        -0.822011
 O         4.562409        -0.686715        -0.067059
 C         4.334730        -2.109871        -0.118832
 C         2.782755        -2.170850         0.110778
 C         2.337693        -1.037337        -0.806804
 H        -0.492047        -0.799448        -0.148156
 H        -0.604074         0.927572         0.242054
 H        -0.194579         0.547933        -1.373973
 H         2.691171         2.096026        -0.083648
 H         3.912635         0.242722        -1.840070
 H         4.480349        -2.534948        -1.134638
 H         5.012711        -2.603151         0.545024
 H         2.436193        -3.137116        -0.257142
 H         2.567823        -1.857283         1.148040
 H         2.048823        -1.453522        -1.779148
