19
Iteration:  3602
 C        -0.090633         0.098399        -0.351710
 C         1.412407         0.011909        -0.226206
 O         1.935609         0.485388         0.937987
 C         2.604050         0.973332        -0.295980
 C         3.501880        -0.173611        -0.879906
 O         4.746489        -0.736465        -0.167919
 C         4.291556        -2.098963        -0.012093
 C         2.780234        -2.038887         0.365421
 C         2.235171        -1.075631        -0.756657
 H        -0.359211         0.293253        -1.389573
 H        -0.638768        -0.874202        -0.088530
 H        -0.495269         0.931930         0.253701
 H         2.637470         2.059289        -0.179711
 H         3.785168         0.153488        -1.872818
 H         4.511326        -2.628866        -0.959418
 H         4.885487        -2.501851         0.833200
 H         2.287368        -3.064465         0.491261
 H         2.769481        -1.401421         1.298935
 H         1.753048        -1.635515        -1.544915
