19
Iteration:  2025charge 0 multiplicity 1
 C        -0.011036         0.104762        -0.345960
 C         1.476715         0.050748        -0.194523
 O         1.950756         0.317870         1.065273
 C         2.583694         1.023404        -0.073322
 C         3.517046         0.008756        -0.849383
 O         4.586215        -0.707892        -0.155293
 C         4.281153        -2.093727        -0.001588
 C         2.754632        -2.228376         0.089697
 C         2.301535        -1.003736        -0.906759
 H        -0.452097        -0.689951         0.275092
 H        -0.270627         1.022071         0.207144
 H        -0.436219         0.252569        -1.376220
 H         2.434662         2.066309        -0.194794
 H         3.991025         0.554640        -1.683607
 H         4.506077        -2.611194        -0.892303
 H         4.762575        -2.412798         0.960093
 H         2.546958        -3.227657        -0.404668
 H         2.365559        -1.947077         1.091204
 H         1.977153        -1.439290        -1.874696
