19
Iteration:  3419
 C        -0.049125         0.079028        -0.036976
 C         1.469573         0.024156        -0.154558
 O         2.275105         0.705719         0.875136
 C         2.604722         0.934078        -0.427810
 C         3.522147        -0.233824        -1.023463
 O         4.551458        -0.724684        -0.245706
 C         4.007901        -1.810529         0.556854
 C         2.782294        -2.406592        -0.152064
 C         2.244746        -1.127014        -0.797994
 H        -0.676458         0.279091        -0.910364
 H        -0.411681        -0.916344         0.380239
 H        -0.047237         0.808007         0.796367
 H         2.679062         1.860232        -0.946251
 H         3.882434        -0.090792        -2.069788
 H         4.733555        -2.595181         0.836500
 H         3.555419        -1.336894         1.483097
 H         3.160636        -3.220472        -0.823102
 H         2.084720        -2.813626         0.569512
 H         1.698593        -1.499735        -1.684997
