19
Iteration:  1695
 C        -0.090213         0.205688        -0.519858
 C         1.399678         0.111155        -0.211632
 O         2.116645         0.336576         1.090381
 C         2.592561         0.929849        -0.046493
 C         3.459063        -0.112030        -0.814180
 O         4.585930        -0.642897        -0.225091
 C         4.322271        -2.029312         0.007880
 C         2.704803        -2.240215         0.102467
 C         2.291693        -1.052849        -0.682656
 H        -0.464634        -0.796967        -0.535550
 H        -0.621665         0.719557         0.260703
 H        -0.286366         0.496987        -1.532583
 H         2.799235         1.968287         0.020670
 H         3.563855         0.180715        -1.889749
 H         4.570276        -2.553054        -0.957146
 H         4.981438        -2.451971         0.912120
 H         2.566212        -3.218627        -0.418444
 H         2.490184        -2.112406         1.220466
 H         1.865632        -1.403095        -1.662385
