19
Iteration:  2288charge 0 multiplicity 1
 C        -0.079705         0.372186        -0.174555
 C         1.402263        -0.072813        -0.132029
 O         2.181965         0.420814         0.971393
 C         2.559190         0.887304        -0.294594
 C         3.514002        -0.152321        -0.872873
 O         4.391673        -0.561413         0.001949
 C         4.282827        -1.965219         0.172073
 C         2.862310        -2.424407        -0.255663
 C         2.261358        -1.137223        -0.823085
 H        -0.851157        -0.335811        -0.574174
 H        -0.316083         0.787123         0.860624
 H        -0.110221         1.353991        -0.649415
 H         2.523859         2.025795        -0.376891
 H         4.008788         0.194691        -1.783487
 H         5.112648        -2.507168        -0.217198
 H         4.393203        -2.155573         1.257266
 H         2.979398        -3.237533        -1.088548
 H         2.469645        -2.837654         0.646035
 H         1.842368        -1.457258        -1.794357
