19
Iteration:  1018
 C        -0.021366         0.210814         0.029027
 C         1.490999        -0.015251        -0.024912
 O         2.208496         0.684023         0.934123
 C         2.594285         0.982590        -0.445070
 C         3.470174        -0.195416        -0.940886
 O         4.311851        -0.621435         0.159585
 C         4.169462        -2.078341         0.230539
 C         2.903261        -2.454434        -0.437895
 C         2.279342        -1.101173        -0.887277
 H        -0.533737        -0.171227         0.907340
 H        -0.182264         1.242231         0.065264
 H        -0.429444        -0.174676        -0.890824
 H         2.564888         2.045535        -0.764321
 H         3.950721        -0.067137        -1.926092
 H         5.115268        -2.590480        -0.136665
 H         4.152257        -2.347961         1.261142
 H         3.165472        -2.953846        -1.382138
 H         2.307154        -3.258978         0.197171
 H         1.788108        -1.226784        -1.820710
