19
Iteration:  1894charge 0 multiplicity 1
 C         0.032623        -0.065240        -0.188056
 C         1.507361         0.078108        -0.258250
 O         2.231393         0.240572         1.127926
 C         2.729029         0.962416        -0.107742
 C         3.450064        -0.033570        -1.046796
 O         4.589589        -0.723554        -0.294086
 C         3.991985        -1.791201         0.491459
 C         2.659610        -2.181731        -0.112010
 C         2.251658        -0.933544        -1.053678
 H        -0.197689        -1.116477         0.112229
 H        -0.528670         0.604666         0.414510
 H        -0.391202         0.116948        -1.240032
 H         2.800328         2.067602        -0.032305
 H         3.831310         0.360766        -2.020295
 H         4.693564        -2.663534         0.545557
 H         3.816822        -1.519784         1.614091
 H         2.745152        -3.149519        -0.743729
 H         1.785843        -2.437688         0.567506
 H         1.714666        -1.286091        -1.982306
