19
Iteration:  2962
 C        -0.045558         0.334331        -0.321653
 C         1.429393         0.015992        -0.189751
 O         2.159612         0.330242         1.013952
 C         2.640327         0.872728        -0.178196
 C         3.422478        -0.184334        -0.957650
 O         4.605918        -0.859656        -0.611143
 C         4.254748        -1.687917         0.442850
 C         2.725335        -2.238680         0.226383
 C         2.247678        -1.148210        -0.736939
 H        -0.574696        -0.524576        -0.599139
 H        -0.598877         0.827518         0.484835
 H        -0.132880         0.848125        -1.265503
 H         2.634487         1.948767        -0.182232
 H         3.425027         0.278299        -1.942280
 H         4.920515        -2.543504         0.302087
 H         4.196582        -1.290370         1.439515
 H         2.768148        -3.206612        -0.318674
 H         2.058629        -2.169160         1.094445
 H         1.832927        -1.604618        -1.610289
