19
Iteration:  3344charge 0 multiplicity 1
 C        -0.062309         0.217834        -0.194667
 C         1.488835        -0.013377        -0.191236
 O         2.301627         0.454038         0.958848
 C         2.571281         0.893408        -0.384322
 C         3.386875        -0.167371        -1.007269
 O         4.467565        -0.656636        -0.194069
 C         4.192134        -1.911532         0.436852
 C         2.813598        -2.282493         0.006283
 C         2.233530        -1.124820        -0.831177
 H        -0.438323        -0.324677        -1.095662
 H        -0.500569        -0.025044         0.800260
 H        -0.140011         1.323885        -0.300352
 H         2.586521         1.947617        -0.602128
 H         3.670349         0.085356        -2.071437
 H         4.966593        -2.653598         0.227787
 H         4.114610        -1.920916         1.509415
 H         2.860380        -3.202150        -0.573114
 H         2.250068        -2.380818         0.898933
 H         1.703369        -1.275857        -1.767478
