19
Iteration:   908charge 0 multiplicity 1
 C         0.019539         0.170478        -0.263730
 C         1.491657         0.161281        -0.284265
 O         2.005426         0.114163         1.084019
 C         2.709435         0.896698        -0.010390
 C         3.451125        -0.110179        -0.990054
 O         4.607562        -0.765208        -0.503217
 C         4.162723        -1.861405         0.380575
 C         2.694220        -2.070983         0.084877
 C         2.299571        -1.002158        -0.921431
 H        -0.230474        -0.868443        -0.027477
 H        -0.459182         0.848574         0.414330
 H        -0.403204         0.286621        -1.251266
 H         2.809912         1.947027         0.204041
 H         3.566642         0.387608        -1.962316
 H         4.910919        -2.710918         0.132659
 H         4.242141        -1.531862         1.399408
 H         2.401626        -3.076919        -0.183769
 H         2.197427        -1.949256         1.147573
 H         2.081892        -1.457273        -1.846531
