19
Iteration:  2966charge 0 multiplicity 1
 C        -0.057045         0.330975        -0.310230
 C         1.395620         0.028283        -0.182629
 O         2.148661         0.295664         0.993049
 C         2.698843         0.840601        -0.143564
 C         3.433721        -0.179336        -0.991188
 O         4.615696        -0.836176        -0.625518
 C         4.252118        -1.702656         0.449969
 C         2.721527        -2.196056         0.250801
 C         2.213740        -1.137011        -0.745528
 H        -0.530934        -0.697227        -0.637658
 H        -0.645055         0.790801         0.461943
 H        -0.212287         0.934573        -1.264545
 H         2.701536         1.922038        -0.121302
 H         3.570964         0.215162        -2.009312
 H         4.857916        -2.643021         0.482860
 H         4.296747        -1.191197         1.421822
 H         2.775629        -3.161777        -0.293056
 H         2.065284        -2.029439         1.104353
 H         1.857892        -1.648789        -1.689858
