19
Iteration:  1477
 C         0.015017         0.422524        -0.478628
 C         1.409959         0.076325        -0.122472
 O         2.042592         0.261131         1.115282
 C         2.602143         0.911173        -0.155602
 C         3.340895        -0.197354        -0.896584
 O         4.438819        -0.591808        -0.120989
 C         4.436867        -1.942087         0.043382
 C         2.911071        -2.334664         0.025189
 C         2.185166        -1.174111        -0.740495
 H        -0.873450        -0.244884        -0.537638
 H        -0.245125         1.174326         0.386399
 H        -0.005555         0.957641        -1.481167
 H         2.711508         2.010052        -0.011772
 H         3.514166         0.136586        -1.940161
 H         4.931008        -2.450938        -0.879570
 H         5.140186        -2.402404         0.878404
 H         2.790193        -3.279769        -0.472839
 H         2.568162        -2.586004         1.120372
 H         1.807119        -1.497049        -1.776277
