19
Iteration:  2110charge 0 multiplicity 1
 C         0.008348         0.353328        -0.451892
 C         1.331537         0.064268        -0.035952
 O         2.061356         0.443822         1.145657
 C         2.544866         0.908666        -0.112274
 C         3.359757        -0.140975        -0.896367
 O         4.518441        -0.620086        -0.128901
 C         4.438322        -1.992222         0.044338
 C         2.902094        -2.394781        -0.099404
 C         2.203543        -1.172054        -0.739401
 H        -0.746818        -0.468656        -0.314049
 H        -0.374106         1.310617        -0.111330
 H         0.122343         0.185539        -1.573991
 H         2.625118         1.967866        -0.053251
 H         3.716074         0.228338        -1.857164
 H         4.987074        -2.446921        -0.890106
 H         4.979220        -2.299503         1.001543
 H         2.854901        -3.268204        -0.731280
 H         2.190803        -2.713146         0.700977
 H         1.764231        -1.513889        -1.650359
