19
Iteration:  4715
 C        -0.088056         0.234187        -0.042138
 C         1.420685        -0.033505        -0.250884
 O         2.288245         0.437735         0.798414
 C         2.573052         0.931276        -0.515516
 C         3.534315        -0.211844        -1.020671
 O         4.479540        -0.664056        -0.143366
 C         4.169159        -1.784151         0.601202
 C         2.771541        -2.268358         0.000871
 C         2.278820        -1.204524        -0.873632
 H        -0.613180         0.333758        -0.984392
 H        -0.608530        -0.712045         0.371364
 H        -0.393080         0.883294         0.718738
 H         2.423024         2.029173        -0.709024
 H         3.924596         0.069253        -2.049639
 H         5.213284        -2.293375         0.490412
 H         4.050895        -1.684406         1.681726
 H         2.735082        -3.312844        -0.499130
 H         2.034480        -2.349583         0.833464
 H         1.904856        -1.625759        -1.857293
