19
Iteration:   538
 C        -0.028160         0.394460        -0.217383
 C         1.371127        -0.052938        -0.076358
 O         2.162095         0.349642         1.034104
 C         2.567177         0.872156        -0.234264
 C         3.434829        -0.075866        -0.931614
 O         4.547905        -0.602712        -0.225178
 C         4.203790        -1.882283         0.398585
 C         2.864770        -2.440758        -0.281438
 C         2.276850        -1.182757        -0.838591
 H        -0.841878        -0.385702        -0.191255
 H        -0.363698         1.216686         0.469595
 H        -0.080346         0.745362        -1.244046
 H         2.627540         1.986226        -0.128673
 H         3.764431         0.259861        -1.935407
 H         5.074394        -2.515842         0.383686
 H         3.932874        -1.744497         1.520469
 H         3.069641        -3.138572        -1.082494
 H         2.252033        -2.943562         0.555204
 H         1.785868        -1.347682        -1.836592
