19
Iteration:  3104
 C         0.010721         0.146420         0.105528
 C         1.504261        -0.018218        -0.226142
 O         2.272617         0.669688         0.808006
 C         2.590540         0.936470        -0.572089
 C         3.496838        -0.267181        -0.988611
 O         4.488697        -0.643259        -0.062666
 C         4.052083        -1.922528         0.505572
 C         2.713133        -2.392450        -0.126297
 C         2.264809        -1.104473        -0.882689
 H        -0.506123        -0.770148        -0.195854
 H        -0.020365         0.310514         1.198707
 H        -0.590682         0.904381        -0.473493
 H         2.642752         2.008326        -0.739509
 H         4.128076        -0.361953        -1.899040
 H         4.925409        -2.629329         0.332462
 H         3.860653        -1.687389         1.603644
 H         2.831779        -3.042824        -1.033043
 H         1.965288        -2.638473         0.629587
 H         1.860645        -1.371020        -1.859995
