19
Iteration:  3631
 C        -0.114690         0.189042        -0.239626
 C         1.447904        -0.006394        -0.384635
 O         2.047307         0.523645         0.888115
 C         2.588613         0.967253        -0.295938
 C         3.456405        -0.156054        -0.868855
 O         4.517231        -0.704217        -0.072913
 C         4.349415        -2.069079         0.049060
 C         2.793987        -2.227303         0.366190
 C         2.326182        -1.100424        -0.844862
 H        -0.699782         0.126396        -1.218428
 H        -0.585831        -0.594331         0.354504
 H        -0.235642         1.175264         0.271344
 H         2.640661         2.019753        -0.251467
 H         3.833331         0.214781        -1.876399
 H         4.560707        -2.548304        -0.944126
 H         5.199960        -2.253343         0.723893
 H         2.445335        -3.201350         0.172072
 H         2.482590        -1.855279         1.369994
 H         2.012512        -1.685355        -1.742448
