19
Iteration:    53charge 0 multiplicity 1
 C         0.064779         0.447426        -0.390822
 C         1.422024        -0.034592        -0.062290
 O         1.946862         0.326460         1.082323
 C         2.628485         0.877989        -0.029927
 C         3.340148        -0.124547        -0.897543
 O         4.584293        -0.656968        -0.382022
 C         4.302127        -1.887958         0.377351
 C         2.964302        -2.358612        -0.194275
 C         2.114788        -1.194614        -0.778281
 H        -0.066335         1.267423         0.206201
 H         0.074396         0.820531        -1.387040
 H        -0.731323        -0.251577        -0.310324
 H         2.699707         1.925965        -0.202554
 H         3.560377         0.314206        -1.904024
 H         5.189826        -2.653031         0.260906
 H         4.272048        -1.683672         1.429947
 H         3.204822        -2.990330        -1.040313
 H         2.561645        -3.088039         0.415832
 H         1.551612        -1.409133        -1.679997
