19
Iteration:  3033
 C        -0.048936         0.396400        -0.271322
 C         1.424097         0.058253        -0.104950
 O         2.213532         0.455167         1.047983
 C         2.552147         0.864395        -0.266515
 C         3.439344        -0.225325        -1.051528
 O         4.556263        -0.821366        -0.477297
 C         4.213485        -1.746711         0.542084
 C         2.815741        -2.359526         0.023991
 C         2.221068        -1.207782        -0.761586
 H        -0.557598        -0.520614        -0.738303
 H        -0.535297         0.647795         0.712955
 H        -0.300985         1.135328        -1.064750
 H         2.660048         1.956964        -0.499213
 H         3.566331         0.028473        -2.140620
 H         5.055858        -2.437466         0.555442
 H         4.032242        -1.189994         1.496857
 H         3.072455        -3.179150        -0.660623
 H         2.277259        -2.749108         0.930718
 H         1.876516        -1.524105        -1.770720
