19
Iteration:  1080
 C        -0.000841         0.033499        -0.114736
 C         1.469193         0.088563        -0.301644
 O         2.146871         0.280900         1.031586
 C         2.614603         0.969654        -0.155112
 C         3.562174        -0.071940        -0.913935
 O         4.685974        -0.735820        -0.305340
 C         4.090511        -1.881416         0.389821
 C         2.594943        -2.172298        -0.046669
 C         2.237094        -1.016818        -1.025961
 H        -0.214287        -0.870893         0.538815
 H        -0.397422         0.941879         0.409695
 H        -0.594344        -0.062901        -1.055398
 H         2.626707         2.066363        -0.217466
 H         3.891848         0.288222        -1.894663
 H         4.803972        -2.699318         0.289595
 H         4.022991        -1.656375         1.496837
 H         2.485933        -3.069539        -0.618138
 H         1.993117        -2.196548         0.828448
 H         2.114570        -1.184704        -2.107684
