19
Iteration:  2915charge 0 multiplicity 1
 C        -0.082456         0.353143        -0.277268
 C         1.387277         0.036484        -0.068221
 O         2.207713         0.571519         1.027254
 C         2.614043         0.900227        -0.411762
 C         3.396742        -0.259059        -0.894378
 O         4.562179        -0.693094        -0.343920
 C         4.265083        -1.840607         0.428632
 C         2.880143        -2.474686        -0.109889
 C         2.139915        -1.215830        -0.673371
 H        -0.779597        -0.004661         0.474956
 H        -0.110329         1.441417        -0.077301
 H        -0.485720         0.052034        -1.226412
 H         2.806824         2.005779        -0.582956
 H         3.589765        -0.211337        -2.011123
 H         4.906417        -2.705862         0.406859
 H         3.993064        -1.464809         1.469113
 H         3.194248        -2.999825        -0.977149
 H         2.338632        -3.068499         0.662883
 H         1.885006        -1.422223        -1.717829
