19
Iteration:  3745
 C         0.033124         0.124421        -0.044775
 C         1.497071         0.032016        -0.300624
 O         2.212756         0.365881         0.951011
 C         2.632929         0.961601        -0.320877
 C         3.517836        -0.177138        -0.978324
 O         4.524406        -0.789697        -0.386831
 C         4.011781        -1.573105         0.664436
 C         2.768612        -2.333295        -0.043987
 C         2.271519        -1.155502        -0.961057
 H        -0.492811        -0.032070        -1.001102
 H        -0.371500        -0.856385         0.454922
 H        -0.298001         1.056392         0.438706
 H         2.475516         2.021177        -0.028384
 H         3.750949         0.084145        -2.025291
 H         4.765278        -2.329199         0.864116
 H         3.719121        -0.957214         1.534540
 H         2.975422        -3.045854        -0.858068
 H         1.925490        -2.635832         0.599372
 H         1.833944        -1.405644        -1.917216
