19
Iteration:  1961charge 0 multiplicity 1
 C        -0.021290         0.411180        -0.213318
 C         1.401795        -0.033950        -0.137391
 O         2.061634         0.311768         1.075560
 C         2.550708         0.903320        -0.159438
 C         3.366728        -0.109457        -0.875814
 O         4.559886        -0.589703        -0.220621
 C         4.250290        -1.915929         0.347497
 C         2.897473        -2.441576        -0.280969
 C         2.300304        -1.166946        -0.887883
 H        -0.582704        -0.179427         0.480350
 H         0.020430         1.474336         0.109000
 H        -0.400998         0.469725        -1.253921
 H         2.581366         1.921527        -0.466618
 H         3.578258         0.344827        -1.890798
 H         5.193359        -2.582783         0.306996
 H         4.142998        -1.726090         1.449772
 H         3.162835        -3.187834        -1.148331
 H         2.324877        -3.018222         0.499773
 H         1.942078        -1.163399        -1.993315
