19
Iteration:  1557charge 0 multiplicity 1
 C        -0.058786        -0.058545        -0.279789
 C         1.403099         0.156817        -0.193426
 O         2.165545         0.525598         1.024379
 C         2.653582         1.016986        -0.154627
 C         3.526055        -0.103605        -0.858444
 O         4.540006        -0.712224        -0.070757
 C         4.219990        -2.130002         0.116920
 C         2.677125        -2.186872        -0.014448
 C         2.273734        -0.990252        -0.951042
 H        -0.312082        -0.713794         0.633151
 H        -0.811605         0.737335        -0.281010
 H        -0.374607        -0.755504        -1.180696
 H         2.876886         2.076057        -0.110295
 H         3.851277         0.187722        -1.873262
 H         4.754247        -2.686093        -0.728755
 H         4.464371        -2.452517         1.096994
 H         2.568573        -3.181115        -0.443434
 H         2.265808        -2.022824         0.969754
 H         1.955982        -0.975750        -2.036164
