19
Iteration:  3089charge 0 multiplicity 1
 C        -0.080842         0.220495         0.025741
 C         1.430562         0.036747        -0.103654
 O         2.308194         0.711533         0.831970
 C         2.552960         0.958150        -0.522677
 C         3.490830        -0.210793        -1.071601
 O         4.471396        -0.700220        -0.053523
 C         4.136180        -1.972028         0.551364
 C         2.832518        -2.439052        -0.193948
 C         2.261399        -1.220764        -0.887316
 H        -0.674860        -0.674390        -0.205172
 H        -0.434760         0.638803         1.059371
 H        -0.308409         1.116258        -0.579003
 H         2.610473         1.965129        -0.986917
 H         3.770224         0.043697        -2.104987
 H         4.917368        -2.713375         0.457446
 H         4.050184        -1.881641         1.655203
 H         3.178948        -3.250118        -0.802119
 H         2.089116        -2.810022         0.564685
 H         1.713675        -1.409369        -1.813658
