19
Iteration:  4068charge 0 multiplicity 1
 C         0.025270         0.054727        -0.355804
 C         1.475531         0.013790        -0.189945
 O         2.200237         0.526298         1.021334
 C         2.601515         0.953353        -0.274919
 C         3.426681        -0.134054        -0.994165
 O         4.517545        -0.710483        -0.356974
 C         4.178178        -1.851661         0.503082
 C         2.765536        -2.237633         0.128208
 C         2.159078        -1.133037        -0.825103
 H        -0.210199        -0.609190        -1.170571
 H        -0.273639        -0.581992         0.487194
 H        -0.493130         1.005812        -0.463340
 H         2.731011         1.975931        -0.635400
 H         3.848030         0.154766        -1.965060
 H         4.924443        -2.595068         0.098994
 H         4.396676        -1.607221         1.583971
 H         2.913517        -3.113350        -0.458416
 H         2.196260        -2.504033         1.063348
 H         1.762595        -1.485655        -1.790030
