19
Iteration:  4162
 C        -0.038554         0.337950        -0.202793
 C         1.427807        -0.099193        -0.216204
 O         2.235145         0.228217         0.946334
 C         2.536091         0.790477        -0.336134
 C         3.435133        -0.297067        -1.121598
 O         4.541630        -0.582668        -0.384781
 C         4.171668        -1.675210         0.655699
 C         2.791361        -2.171090         0.165289
 C         2.300960        -1.195931        -0.895662
 H        -0.305042         0.673839        -1.291898
 H        -0.803269        -0.379872         0.078547
 H        -0.061064         1.301719         0.369539
 H         2.669773         1.875189        -0.217194
 H         3.656986         0.067432        -2.146756
 H         4.935810        -2.510663         0.769740
 H         4.078475        -1.040647         1.571700
 H         3.030294        -3.136038        -0.447973
 H         1.982178        -2.307668         0.851366
 H         1.762239        -1.491979        -1.836589
