19
Iteration:  4947
 C        -0.117590         0.137546        -0.200554
 C         1.415949         0.097644        -0.334662
 O         2.064522         0.564442         0.841552
 C         2.589225         0.993265        -0.585807
 C         3.486762        -0.236989        -0.932371
 O         4.552207        -0.614631         0.047014
 C         4.266195        -2.072225         0.172312
 C         2.830942        -2.196338         0.263492
 C         2.285109        -1.196690        -0.721095
 H        -0.660916         0.458886        -1.055897
 H        -0.392288        -0.910863         0.260389
 H        -0.295429         0.765464         0.748689
 H         2.738599         2.064057        -0.876340
 H         3.890788        -0.075076        -1.912437
 H         4.677034        -2.624032        -0.665148
 H         4.738981        -2.513557         1.010580
 H         2.631768        -3.192656        -0.075062
 H         2.542114        -2.134242         1.354456
 H         2.041792        -1.665392        -1.664656
