19
Iteration:  1364
 C        -0.037538         0.287765        -0.344554
 C         1.423207        -0.018945        -0.089169
 O         2.069592         0.374376         1.057599
 C         2.524174         1.022127        -0.162125
 C         3.459443        -0.061606        -0.818419
 O         4.512127        -0.649170        -0.035627
 C         4.372210        -2.060806        -0.006352
 C         2.796317        -2.374211        -0.089274
 C         2.277355        -1.088627        -0.873117
 H        -0.665892        -0.189191         0.431160
 H        -0.210069         1.329904        -0.290283
 H        -0.286646        -0.139914        -1.310586
 H         2.605975         2.096351        -0.144473
 H         3.840598         0.234218        -1.799958
 H         4.973163        -2.482972        -0.864601
 H         4.760077        -2.509785         1.005421
 H         2.425132        -3.267248        -0.629991
 H         2.501003        -2.228524         0.960840
 H         1.826816        -1.243741        -1.822376
