19
Iteration:  1156charge 0 multiplicity 1
 C         0.169430         0.623383        -0.505525
 C         1.424924        -0.046609        -0.069454
 O         1.962276         0.168011         1.184090
 C         2.543222         0.825741        -0.004980
 C         3.253117        -0.198188        -0.828065
 O         4.510846        -0.689829        -0.568071
 C         4.294313        -1.658321         0.369285
 C         3.048833        -2.422864        -0.059744
 C         2.182175        -1.263652        -0.805009
 H        -0.743159        -0.055721        -0.578243
 H        -0.168865         1.481643         0.093990
 H         0.396819         0.949577        -1.556877
 H         2.683041         1.928237        -0.029214
 H         3.297760         0.300862        -1.801296
 H         5.200668        -2.281864         0.417089
 H         4.158712        -1.263066         1.448834
 H         3.183816        -3.191083        -0.758337
 H         2.540587        -2.695707         0.813532
 H         1.742916        -1.485304        -1.784469
