19
Iteration:  3920charge 0 multiplicity 1
 C        -0.122962         0.154484        -0.363741
 C         1.375369         0.026056        -0.318815
 O         1.911856         0.564798         0.934649
 C         2.590584         0.997658        -0.308845
 C         3.503265        -0.072317        -0.758101
 O         4.669298        -0.737393        -0.207317
 C         4.349055        -2.130496         0.024709
 C         2.849385        -2.197197         0.351049
 C         2.297629        -1.133191        -0.707033
 H        -0.551037        -0.151816        -1.328106
 H        -0.443270        -0.601611         0.421333
 H        -0.551535         1.098860        -0.043306
 H         2.616115         2.041270        -0.389857
 H         3.723835         0.037762        -1.859454
 H         4.740549        -2.530524        -0.973322
 H         4.953385        -2.515547         0.855575
 H         2.162505        -3.035615         0.143044
 H         2.777321        -1.992492         1.410274
 H         2.027656        -1.650136        -1.625569
