19
Iteration:  3742
 C        -0.001877         0.134180        -0.035148
 C         1.458288         0.061154        -0.300800
 O         2.211397         0.377940         0.963331
 C         2.620200         0.961920        -0.349163
 C         3.520254        -0.166599        -0.987065
 O         4.536694        -0.806059        -0.372640
 C         4.028131        -1.619301         0.664329
 C         2.796784        -2.362602        -0.064244
 C         2.285738        -1.148134        -0.938997
 H        -0.545673        -0.010016        -0.973484
 H        -0.384767        -0.780635         0.472943
 H        -0.303484         1.103135         0.374384
 H         2.411546         2.026796        -0.054849
 H         3.768394         0.155994        -2.042157
 H         4.830263        -2.319626         0.879958
 H         3.721884        -0.910443         1.449263
 H         3.078421        -3.117834        -0.777355
 H         1.927964        -2.579855         0.584833
 H         1.907508        -1.380681        -1.964381
