19
Iteration:  1005charge 0 multiplicity 1
 C        -0.094883         0.346722         0.096468
 C         1.374153         0.021904        -0.065546
 O         2.199911         0.683490         0.865925
 C         2.477540         1.067646        -0.421956
 C         3.494517        -0.122668        -0.936208
 O         4.369630        -0.766754         0.155824
 C         4.296444        -2.121421         0.297478
 C         2.975012        -2.498273        -0.442398
 C         2.325821        -1.170420        -0.895733
 H        -0.671406        -0.223066         0.819544
 H        -0.242485         1.401066         0.095079
 H        -0.583447         0.012416        -0.808128
 H         2.180723         2.027564        -0.836708
 H         4.180063        -0.043712        -1.789665
 H         5.070917        -2.640435        -0.352027
 H         4.327821        -2.303650         1.325458
 H         3.301546        -2.949885        -1.378903
 H         2.263482        -3.315162         0.031874
 H         1.737835        -1.235082        -1.747949
