19
Iteration:  4579charge 0 multiplicity 1
 C        -0.052714         0.345726        -0.405362
 C         1.418897        -0.047862        -0.188121
 O         2.166809         0.372666         0.956239
 C         2.525321         0.901594        -0.364201
 C         3.368392        -0.272700        -1.016725
 O         4.572075        -0.572836        -0.170512
 C         4.370382        -1.964006         0.201846
 C         2.828949        -2.131672         0.344309
 C         2.191732        -1.232144        -0.737527
 H        -0.264055         0.442142        -1.530803
 H        -0.590913        -0.586634        -0.117654
 H        -0.472138         1.358452         0.048970
 H         2.431212         2.010283        -0.393329
 H         3.529214        -0.016174        -2.026699
 H         4.903955        -2.513436        -0.600809
 H         4.862313        -2.277002         1.197331
 H         2.553222        -3.170444         0.407245
 H         2.414039        -1.790715         1.327575
 H         1.865315        -1.769733        -1.615208
