19
Iteration:  3139charge 0 multiplicity 1
 C         0.033284        -0.073411         0.035577
 C         1.496798         0.027417        -0.228977
 O         2.415740         0.541399         0.831535
 C         2.597222         1.043278        -0.455213
 C         3.571209        -0.255996        -1.072890
 O         4.429992        -0.707284        -0.188384
 C         3.965740        -1.832691         0.589571
 C         2.619831        -2.209888         0.005459
 C         2.279681        -1.052718        -0.983441
 H        -0.402758        -0.963777        -0.468113
 H        -0.179825        -0.309725         1.031606
 H        -0.493861         0.868111        -0.068873
 H         2.895522         2.097614        -0.654983
 H         3.920224        -0.212447        -2.115292
 H         4.605063        -2.751307         0.770198
 H         3.980127        -1.303500         1.566638
 H         2.698511        -3.285365        -0.426732
 H         1.723014        -2.275403         0.642212
 H         1.829118        -1.282408        -1.982581
