19
Iteration:   127charge 0 multiplicity 1
 C        -0.106342         0.189096        -0.151446
 C         1.420870         0.117950        -0.389401
 O         1.945724         0.175565         0.999449
 C         2.692735         0.883593         0.071791
 C         3.567767        -0.035044        -0.894056
 O         4.717336        -0.732408        -0.431177
 C         4.124809        -1.827992         0.459962
 C         2.738400        -2.246903        -0.122307
 C         2.333721        -1.028758        -1.027624
 H        -0.416168         1.065599         0.455491
 H        -0.846385         0.082677        -1.027809
 H        -0.186241        -0.733768         0.540587
 H         2.954229         1.897987         0.294735
 H         3.855367         0.639767        -1.720013
 H         5.004968        -2.510918         0.479784
 H         3.907885        -1.440727         1.456669
 H         2.649434        -3.379463        -0.489416
 H         1.984498        -2.243405         0.826389
 H         2.086319        -1.427483        -2.010995
