19
Iteration:  4699charge 0 multiplicity 1
 C        -0.013406         0.150640        -0.068184
 C         1.451375        -0.016799        -0.239111
 O         2.333802         0.389336         0.899590
 C         2.560716         0.926595        -0.472942
 C         3.448661        -0.191647        -1.126852
 O         4.521372        -0.585844        -0.208138
 C         4.023446        -1.749201         0.650277
 C         2.771800        -2.342492         0.062268
 C         2.284346        -1.184910        -0.968921
 H        -0.517914         0.233956        -1.089549
 H        -0.391436        -0.698623         0.532899
 H        -0.111781         1.215499         0.403942
 H         2.657036         1.990024        -0.549360
 H         3.909376         0.005021        -2.093600
 H         4.697086        -2.565144         0.763871
 H         3.805082        -1.259363         1.640613
 H         2.968240        -3.266292        -0.403894
 H         2.045713        -2.561430         0.880152
 H         1.802670        -1.384624        -1.919564
