19
Iteration:  2959charge 0 multiplicity 1
 C        -0.030227         0.336613        -0.338621
 C         1.453465         0.006985        -0.187652
 O         2.163288         0.355086         1.042361
 C         2.597468         0.901943        -0.203932
 C         3.409343        -0.185822        -0.940070
 O         4.597938        -0.867296        -0.601630
 C         4.245713        -1.702060         0.440684
 C         2.738224        -2.261264         0.198758
 C         2.265575        -1.163127        -0.738428
 H        -0.665481        -0.524771        -0.541192
 H        -0.523477         0.878162         0.526517
 H        -0.092645         0.872092        -1.280643
 H         2.629546         2.035824        -0.258463
 H         3.375353         0.282895        -1.962592
 H         4.994839        -2.470540         0.235460
 H         4.193572        -1.292023         1.512504
 H         2.730972        -3.219113        -0.276700
 H         2.099239        -2.334635         1.122922
 H         1.794760        -1.571950        -1.629883
