19
Iteration:  2158
 C        -0.051723         0.358834        -0.185234
 C         1.412272        -0.081719        -0.218455
 O         1.991806         0.290716         1.100881
 C         2.534270         0.934495        -0.185688
 C         3.456559        -0.096621        -0.866796
 O         4.569741        -0.630484        -0.257695
 C         4.275182        -1.976117         0.330020
 C         2.850740        -2.269845        -0.096104
 C         2.349818        -1.088344        -1.014318
 H        -0.599122        -0.067796         0.668660
 H        -0.067333         1.481779        -0.095573
 H        -0.593827        -0.026261        -1.021628
 H         2.685727         2.045199        -0.219602
 H         3.761806         0.246090        -1.857818
 H         5.014272        -2.800009        -0.170210
 H         4.455399        -1.920684         1.426865
 H         3.024624        -3.203969        -0.690804
 H         2.137626        -2.597171         0.654566
 H         2.128807        -1.420254        -2.066299
