19
Iteration:  3273
 C        -0.082165         0.293680        -0.484356
 C         1.416855         0.035997        -0.185977
 O         2.055455         0.333094         1.118053
 C         2.606415         0.874957        -0.131387
 C         3.477483        -0.125259        -0.968348
 O         4.652301        -0.840096        -0.665553
 C         4.263830        -1.832109         0.418174
 C         2.814234        -2.152709         0.324730
 C         2.184307        -1.140230        -0.762464
 H        -0.175205         0.403999        -1.565506
 H        -0.578597        -0.601775        -0.128430
 H        -0.418347         1.113932         0.115517
 H         2.694033         1.972281        -0.191581
 H         3.557812         0.172272        -1.989831
 H         4.911559        -2.728440         0.296681
 H         4.701199        -1.319356         1.318601
 H         2.440453        -3.150913         0.028605
 H         2.290232        -1.784431         1.254424
 H         1.945641        -1.755260        -1.634705
