19
Iteration:  4898charge 0 multiplicity 1
 C        -0.079514         0.148401        -0.537061
 C         1.379944         0.010988        -0.120824
 O         2.138054         0.666729         0.952288
 C         2.499437         0.948126        -0.388319
 C         3.474598        -0.257878        -0.929085
 O         4.551208        -0.649108        -0.137949
 C         4.357316        -2.058994         0.066728
 C         2.820367        -2.264118         0.317135
 C         2.252850        -1.092138        -0.495428
 H        -0.068033        -0.050039        -1.666193
 H        -0.575663        -0.629432         0.023164
 H        -0.572427         1.025976        -0.207647
 H         2.338421         1.970273        -0.791830
 H         3.663844        -0.244967        -2.048266
 H         4.686996        -2.674097        -0.784759
 H         5.119354        -2.286102         0.872503
 H         2.438904        -3.272030        -0.035727
 H         2.579599        -2.143101         1.366175
 H         1.764882        -1.506058        -1.425465
