19
Iteration:  4010charge 0 multiplicity 1
 C        -0.000851         0.307940        -0.195359
 C         1.409557        -0.100104        -0.294486
 O         2.074550         0.332383         0.898187
 C         2.527650         0.971060        -0.373208
 C         3.448276        -0.243587        -1.010294
 O         4.502101        -0.563634        -0.152822
 C         4.297269        -1.900519         0.404257
 C         2.833340        -2.226985         0.152101
 C         2.290906        -1.175145        -0.899983
 H        -0.556315         0.358051        -1.176570
 H        -0.541856        -0.330335         0.496641
 H        -0.058940         1.209787         0.443059
 H         2.609400         2.089742        -0.428079
 H         3.706452        -0.129223        -2.115094
 H         5.096987        -2.568555        -0.079844
 H         4.550016        -1.929108         1.456103
 H         2.599351        -3.289613         0.055803
 H         2.475477        -1.963717         1.129345
 H         2.077539        -1.668797        -1.834082
