19
Iteration:  3155
 C         0.025408        -0.045801        -0.025360
 C         1.546001         0.035399        -0.217627
 O         2.371064         0.490773         0.905755
 C         2.650066         0.943960        -0.483191
 C         3.489544        -0.177753        -1.123362
 O         4.606748        -0.779446        -0.271991
 C         3.909907        -1.698515         0.639089
 C         2.574092        -2.215075         0.014510
 C         2.236819        -1.082679        -0.907037
 H        -0.346711        -0.628807        -0.853919
 H        -0.231504        -0.522883         1.003923
 H        -0.488482         0.943098         0.059319
 H         2.403446         1.977286        -0.606083
 H         4.002666        -0.007399        -2.074143
 H         4.669779        -2.464425         0.704046
 H         3.753127        -1.431557         1.680448
 H         2.665268        -3.061430        -0.601570
 H         1.882203        -2.216807         0.869159
 H         1.740851        -1.409212        -1.820750
