19
Iteration:  3869charge 0 multiplicity 1
 C         0.008795         0.265589        -0.478301
 C         1.417253        -0.029987        -0.123866
 O         2.044848         0.450568         1.034732
 C         2.559012         0.976404        -0.228029
 C         3.407869        -0.193482        -0.955267
 O         4.537356        -0.584695        -0.196950
 C         4.341665        -1.982223         0.109939
 C         2.854052        -2.279890         0.262746
 C         2.203623        -1.198109        -0.742903
 H        -0.159769        -0.392672        -1.379403
 H        -0.746235         0.024927         0.260061
 H        -0.147195         1.349684        -0.690591
 H         2.789033         2.025140        -0.477504
 H         3.589435         0.109058        -1.987823
 H         4.763523        -2.464390        -0.757274
 H         4.992267        -2.350800         0.903430
 H         2.654188        -3.381733         0.165032
 H         2.557323        -2.054203         1.284451
 H         1.742779        -1.742401        -1.570384
