19
Iteration:  2731
 C         0.034782         0.555612        -0.359919
 C         1.389058        -0.039108        -0.144353
 O         2.115389         0.332869         1.055756
 C         2.486590         0.839946        -0.149254
 C         3.347114        -0.156076        -1.001090
 O         4.548228        -0.676989        -0.368018
 C         4.361028        -1.959726         0.325569
 C         2.865695        -2.307219         0.098902
 C         2.240812        -1.187064        -0.780818
 H         0.092264         1.222170        -1.235780
 H        -0.551249        -0.416955        -0.586559
 H        -0.342514         1.150642         0.481275
 H         2.295628         1.886740        -0.279409
 H         3.512427         0.177018        -2.030643
 H         5.000125        -2.685106        -0.141448
 H         4.554866        -1.926764         1.418061
 H         2.828474        -3.145018        -0.623200
 H         2.315629        -2.444582         1.089962
 H         1.838030        -1.603228        -1.685047
