19
Iteration:   968
 C        -0.011572         0.260568        -0.061988
 C         1.480156         0.012393        -0.125263
 O         2.106351         0.557657         0.951936
 C         2.637251         0.980963        -0.280437
 C         3.505755        -0.172936        -0.934517
 O         4.464286        -0.648675        -0.016121
 C         4.219303        -1.966213         0.253654
 C         2.795948        -2.450938        -0.325347
 C         2.207033        -1.160560        -0.826106
 H        -0.463635        -0.306663         0.783607
 H        -0.220277         1.356042         0.235960
 H        -0.451723         0.034201        -1.070421
 H         2.569065         2.058580        -0.470446
 H         3.897532         0.110718        -1.931673
 H         4.935254        -2.537341        -0.242924
 H         4.458084        -2.228404         1.322187
 H         3.008363        -3.093672        -1.214352
 H         2.224750        -2.929410         0.364941
 H         1.765755        -1.370066        -1.863226
