19
Iteration:  1995charge 0 multiplicity 1
 C        -0.072544         0.249615        -0.446024
 C         1.369186         0.024534        -0.026694
 O         2.167582         0.369252         1.141284
 C         2.601501         0.895108        -0.100254
 C         3.386194        -0.121420        -0.856786
 O         4.522282        -0.602815        -0.163781
 C         4.372476        -1.998672         0.158445
 C         2.793709        -2.304709        -0.158984
 C         2.232770        -1.058385        -0.831675
 H        -0.820090        -0.327552         0.060597
 H        -0.341694         1.306983        -0.176440
 H        -0.206945         0.022949        -1.488071
 H         2.640730         1.949903        -0.336997
 H         3.723610         0.372102        -1.806864
 H         4.897449        -2.690751        -0.547100
 H         4.679846        -2.157193         1.209105
 H         2.872749        -3.156723        -0.957939
 H         2.316891        -2.791885         0.718441
 H         1.862445        -1.349322        -1.875994
