19
Iteration:  4727
 C        -0.093378         0.167095        -0.049275
 C         1.440787        -0.031674        -0.288069
 O         2.197917         0.519016         0.798736
 C         2.595757         0.942221        -0.495132
 C         3.429270        -0.226710        -0.995449
 O         4.563075        -0.599337        -0.133808
 C         4.189657        -1.879113         0.550431
 C         2.790352        -2.297759         0.083593
 C         2.256980        -1.180290        -0.870357
 H        -0.491993         0.652333        -0.904803
 H        -0.639042        -0.754990         0.220149
 H        -0.074502         0.956665         0.628759
 H         2.656592         2.007911        -0.811754
 H         3.892874        -0.144803        -2.038571
 H         4.772394        -2.818018         0.246130
 H         4.234279        -1.633820         1.603423
 H         2.990265        -3.217797        -0.573524
 H         2.160379        -2.559036         0.937490
 H         1.874932        -1.450942        -1.902936
