19
Iteration:  3348charge 0 multiplicity 1
 C        -0.026919         0.242446        -0.183607
 C         1.496893         0.014933        -0.145615
 O         2.307574         0.446763         0.942099
 C         2.563082         0.894362        -0.427448
 C         3.366722        -0.182569        -1.006605
 O         4.471732        -0.624645        -0.157769
 C         4.154278        -1.884705         0.441293
 C         2.828202        -2.339108        -0.002372
 C         2.242241        -1.159827        -0.862872
 H        -0.503544        -0.320661        -1.017724
 H        -0.484191        -0.056745         0.725722
 H        -0.061388         1.314215        -0.231875
 H         2.497138         1.972575        -0.593770
 H         3.701780         0.133451        -1.985434
 H         4.994895        -2.546486         0.107660
 H         4.175244        -1.888018         1.545602
 H         2.734966        -3.219848        -0.647900
 H         2.150780        -2.527038         0.870903
 H         1.700146        -1.368781        -1.798852
