19
Iteration:  4519charge 0 multiplicity 1
 C        -0.179503         0.079054        -0.420708
 C         1.400105         0.038021        -0.112307
 O         1.973932         0.763774         0.988024
 C         2.575671         0.990382        -0.467169
 C         3.562140        -0.178426        -0.866774
 O         4.584019        -0.753046        -0.182513
 C         4.365547        -2.161191         0.027241
 C         2.847579        -2.168363         0.332220
 C         2.311353        -1.144192        -0.599796
 H        -0.324632         0.183518        -1.483589
 H        -0.637634        -0.913854        -0.228540
 H        -0.716624         0.754354         0.161786
 H         2.582113         2.057117        -0.571429
 H         3.791144        -0.059452        -1.993145
 H         4.617496        -2.615493        -0.924643
 H         4.789772        -2.709793         0.836508
 H         2.518831        -3.182497         0.037682
 H         2.825344        -1.841407         1.375436
 H         1.894630        -1.621654        -1.524428
