19
Iteration:   479charge 0 multiplicity 1
 C        -0.087380         0.150472        -0.040035
 C         1.458203         0.043733        -0.189486
 O         2.176309         0.410314         1.059930
 C         2.585056         0.920942        -0.261716
 C         3.554962        -0.095747        -0.944664
 O         4.620331        -0.717701        -0.230410
 C         3.966392        -1.828314         0.535503
 C         2.810276        -2.350305        -0.360535
 C         2.317841        -1.080855        -0.983018
 H        -0.463018        -0.904430         0.191345
 H        -0.294908         0.958277         0.708345
 H        -0.428733         0.539906        -1.093699
 H         2.572000         2.010532        -0.330817
 H         3.891921         0.103956        -1.963628
 H         4.809035        -2.670372         0.693899
 H         3.517694        -1.405779         1.415827
 H         3.077498        -3.195163        -1.096594
 H         2.217388        -2.824014         0.397550
 H         1.959972        -1.142663        -1.989283
