19
Iteration:  2663
 C        -0.065840         0.164147        -0.303762
 C         1.443344         0.054956        -0.134901
 O         2.024662         0.415371         1.084538
 C         2.614438         0.964100        -0.052118
 C         3.529085        -0.038932        -0.871396
 O         4.679729        -0.851113        -0.512697
 C         4.171240        -1.988375         0.281905
 C         2.669776        -2.237093         0.063784
 C         2.349356        -0.994851        -0.910855
 H        -0.330606        -0.597220        -1.113148
 H        -0.511174        -0.117125         0.644940
 H        -0.606428         1.109777        -0.598661
 H         2.834045         2.039225        -0.024032
 H         3.999039         0.524952        -1.716344
 H         4.669474        -2.866337        -0.092942
 H         4.476068        -1.767593         1.345312
 H         2.501556        -3.248748        -0.387346
 H         2.059460        -2.021958         1.005805
 H         1.968024        -1.501834        -1.813110
