19
Iteration:  3864charge 0 multiplicity 1
 C        -0.022557         0.284789        -0.480807
 C         1.416088         0.002491        -0.141631
 O         2.043409         0.435368         1.043823
 C         2.570087         0.982872        -0.247892
 C         3.381641        -0.183615        -0.958352
 O         4.527011        -0.616143        -0.223682
 C         4.355055        -1.956948         0.141579
 C         2.856301        -2.326422         0.266521
 C         2.269908        -1.181509        -0.709623
 H        -0.185208        -0.319590        -1.352326
 H        -0.842980         0.005652         0.244288
 H        -0.162655         1.343538        -0.648454
 H         2.524155         2.066912        -0.427836
 H         3.685700        -0.087437        -2.064024
 H         4.914249        -2.449882        -0.739144
 H         5.014081        -2.300761         0.965282
 H         2.512951        -3.323032        -0.053875
 H         2.637777        -2.192054         1.352411
 H         1.716137        -1.635242        -1.549900
