19
Iteration:  2838
 C         0.063001        -0.042228         0.069139
 C         1.472792         0.066773        -0.235444
 O         2.374048         0.361343         0.823784
 C         2.671670         1.004016        -0.369072
 C         3.503838        -0.160477        -1.056908
 O         4.446446        -0.759254        -0.272364
 C         3.878476        -1.738675         0.722246
 C         2.714263        -2.206643        -0.106571
 C         2.268561        -0.972394        -1.042090
 H        -0.344444         0.748808         0.715430
 H        -0.516380        -0.016313        -0.837290
 H        -0.073397        -0.996850         0.555511
 H         2.992047         2.034319        -0.331162
 H         3.976022        -0.094521        -2.076060
 H         4.578185        -2.582128         0.816303
 H         3.606278        -1.441733         1.788867
 H         2.914462        -3.138432        -0.595614
 H         1.952816        -2.626429         0.622326
 H         1.784853        -1.248920        -1.995085
