19
Iteration:  2260
 C        -0.097996         0.229765        -0.118880
 C         1.423992         0.048730        -0.144243
 O         2.111347         0.470330         1.040311
 C         2.556961         1.051589        -0.252181
 C         3.469713        -0.170943        -0.903258
 O         4.585319        -0.727072        -0.176951
 C         4.215003        -1.967282         0.436692
 C         2.893886        -2.364024        -0.362775
 C         2.218334        -1.117536        -0.938559
 H        -0.663579        -0.675630        -0.344398
 H        -0.375664         0.555866         0.847818
 H        -0.344383         1.068758        -0.796260
 H         2.635317         2.111280        -0.191521
 H         3.958827         0.157637        -1.846598
 H         4.972746        -2.805661         0.203046
 H         4.064686        -1.838316         1.560259
 H         3.261570        -2.980314        -1.137661
 H         2.303080        -2.872594         0.426269
 H         1.744910        -1.463336        -1.857402
