19
Iteration:  2988
 C        -0.067115         0.263680        -0.300819
 C         1.497696         0.125901        -0.279004
 O         2.071907         0.159971         1.136549
 C         2.732967         0.840594        -0.188311
 C         3.422125        -0.278872        -1.095265
 O         4.626862        -0.869894        -0.611759
 C         4.243253        -1.625635         0.517608
 C         2.733195        -2.036690         0.285818
 C         2.202099        -1.101105        -0.913289
 H        -0.679233        -0.694098        -0.651395
 H        -0.345188         0.574246         0.698378
 H        -0.484811         1.063045        -0.991664
 H         3.138596         1.781427         0.204487
 H         3.452015         0.267045        -2.045071
 H         4.878924        -2.526781         0.367375
 H         4.208910        -1.293177         1.540652
 H         2.675048        -3.097620        -0.058348
 H         2.129641        -1.617004         1.105405
 H         1.545384        -1.696670        -1.625333
