19
Iteration:  3250charge 0 multiplicity 1
 C        -0.001223         0.421704        -0.487567
 C         1.425131        -0.025578        -0.157100
 O         2.084322         0.322416         1.078681
 C         2.633981         0.877634        -0.166527
 C         3.301135        -0.234125        -1.026656
 O         4.578844        -0.722628        -0.547585
 C         4.350542        -1.729729         0.412391
 C         2.833886        -2.262370         0.304818
 C         2.130219        -1.247122        -0.720350
 H         0.236629         0.956684        -1.433247
 H        -0.711478        -0.341431        -0.630109
 H        -0.308646         1.135513         0.243475
 H         2.901108         1.922167        -0.316769
 H         3.340064        -0.093734        -2.086977
 H         5.037611        -2.610975         0.229109
 H         4.727409        -1.295985         1.361402
 H         2.990589        -3.282545        -0.097370
 H         2.223355        -2.206497         1.231622
 H         1.726789        -1.721961        -1.632900
