19
Iteration:  2103
 C         0.027653         0.306017        -0.456726
 C         1.398072        -0.031388        -0.071169
 O         2.066016         0.462597         1.113689
 C         2.538935         0.948323        -0.059266
 C         3.416050        -0.085685        -0.827714
 O         4.513950        -0.597665        -0.132997
 C         4.413560        -2.005688         0.003881
 C         2.840614        -2.397424        -0.062008
 C         2.161360        -1.165930        -0.767736
 H        -0.551373        -0.586763        -0.239416
 H        -0.430804         1.288236        -0.156027
 H         0.075956         0.464186        -1.543597
 H         2.535712         2.023509        -0.267618
 H         3.751737         0.319232        -1.798644
 H         4.872445        -2.595062        -0.913099
 H         5.040574        -2.394496         0.831125
 H         2.858132        -3.405966        -0.603337
 H         2.267637        -2.543944         0.868747
 H         1.603493        -1.549646        -1.683063
