19
Iteration:   296charge 0 multiplicity 1
 C         0.042370         0.156458        -0.479306
 C         1.517367         0.020438        -0.066451
 O         2.289426         0.125028         1.208765
 C         2.638746         0.894296         0.036650
 C         3.429950        -0.026273        -1.047186
 O         4.611850        -0.633426        -0.383150
 C         4.040515        -1.757880         0.421091
 C         2.630246        -2.241744        -0.072007
 C         2.194919        -1.037683        -0.987671
 H        -0.412422         1.156062        -0.368079
 H        -0.075098        -0.127752        -1.465470
 H        -0.575221        -0.469925         0.079586
 H         2.796213         1.951413         0.299433
 H         3.898904         0.251633        -2.004112
 H         4.700342        -2.576173         0.232716
 H         3.867879        -1.594955         1.479773
 H         2.685928        -3.281929        -0.554125
 H         1.890847        -2.302239         0.645373
 H         1.746068        -1.296616        -1.934885
