19
Iteration:  4539
 C        -0.090245         0.180579        -0.380327
 C         1.329043         0.066626        -0.251765
 O         2.002861         0.621963         0.873781
 C         2.513984         0.961791        -0.324887
 C         3.413067        -0.182513        -0.862304
 O         4.723233        -0.694350        -0.128963
 C         4.371638        -2.106049         0.021911
 C         2.839969        -2.197847         0.399761
 C         2.269644        -1.193189        -0.670554
 H        -0.471822         0.538909        -1.308027
 H        -0.508828        -0.787622        -0.247378
 H        -0.460527         0.838404         0.369620
 H         2.517037         1.946428        -0.761584
 H         3.751962        -0.258694        -1.941986
 H         4.466107        -2.694618        -0.911600
 H         5.070292        -2.558723         0.769296
 H         2.284496        -3.166440         0.362251
 H         2.922132        -1.723674         1.457530
 H         1.910313        -1.646965        -1.605349
