19
Iteration:  1791
 C         0.006382         0.392102        -0.409931
 C         1.386034        -0.078190        -0.086049
 O         2.101962         0.313594         1.087287
 C         2.553633         0.883644        -0.161331
 C         3.417464        -0.096708        -0.895507
 O         4.458965        -0.547809        -0.039401
 C         4.354527        -2.016698        -0.013463
 C         2.876812        -2.317119        -0.015266
 C         2.228644        -1.190329        -0.807175
 H        -0.839433         0.091852         0.323794
 H         0.102569         1.546001        -0.456050
 H        -0.253855         0.074712        -1.433093
 H         2.564586         1.947629        -0.229764
 H         3.808861         0.331375        -1.821208
 H         4.822234        -2.346874        -0.927766
 H         4.837295        -2.444922         0.891989
 H         2.614907        -3.322188        -0.339186
 H         2.484520        -2.014416         0.966597
 H         1.859288        -1.371067        -1.783435
