19
Iteration:   119
 C        -0.069109         0.190083        -0.216874
 C         1.493851         0.173918        -0.351134
 O         1.917776         0.090175         1.081164
 C         2.741564         0.847396         0.011727
 C         3.562893        -0.044753        -0.914024
 O         4.618240        -0.707358        -0.456261
 C         4.123551        -1.828687         0.432460
 C         2.733311        -2.218144        -0.047799
 C         2.337497        -0.983511        -0.989573
 H        -0.491544         1.001215         0.264366
 H        -0.630595        -0.063211        -1.080818
 H        -0.200199        -0.646723         0.432458
 H         2.792112         1.897542         0.243260
 H         3.739921         0.538839        -1.857685
 H         4.975459        -2.613012         0.471360
 H         4.031875        -1.432780         1.413918
 H         2.690651        -3.197036        -0.537891
 H         2.130417        -2.187423         0.781384
 H         2.165953        -1.394578        -1.960086
