19
Iteration:  2258
 C        -0.093022         0.214012        -0.122294
 C         1.422340         0.047656        -0.138724
 O         2.109957         0.478409         1.038349
 C         2.566836         1.035993        -0.241783
 C         3.489540        -0.163178        -0.902981
 O         4.578578        -0.744948        -0.198278
 C         4.202503        -1.955755         0.445237
 C         2.890878        -2.352660        -0.343957
 C         2.222351        -1.108320        -0.939532
 H        -0.708421        -0.671582        -0.310344
 H        -0.355930         0.490121         0.861394
 H        -0.302237         1.000740        -0.828781
 H         2.616837         2.145394        -0.169646
 H         3.946588         0.197843        -1.827973
 H         4.988200        -2.777165         0.217499
 H         3.941393        -1.816395         1.484782
 H         3.257864        -2.974106        -1.141891
 H         2.324622        -2.854020         0.373712
 H         1.721065        -1.416376        -1.892271
