19
Iteration:  2921
 C        -0.058795         0.375691        -0.280367
 C         1.397147         0.024055        -0.035601
 O         2.159387         0.576242         1.051555
 C         2.618314         0.892124        -0.373717
 C         3.385785        -0.260712        -0.927666
 O         4.572725        -0.723879        -0.370037
 C         4.237931        -1.798398         0.432901
 C         2.837404        -2.447498        -0.093290
 C         2.196262        -1.253266        -0.692910
 H        -0.819195        -0.233471         0.353149
 H        -0.138310         1.439525        -0.076252
 H        -0.325398         0.274897        -1.387327
 H         2.841543         1.867463        -0.707754
 H         3.633016        -0.187358        -1.976924
 H         5.091968        -2.541418         0.319133
 H         4.250500        -1.482846         1.467889
 H         3.142959        -3.035269        -1.028289
 H         2.426389        -3.003710         0.737419
 H         1.676018        -1.447292        -1.675497
