19
Iteration:  2796charge 0 multiplicity 1
 C        -0.013662         0.139618        -0.082043
 C         1.466923        -0.002751        -0.141887
 O         2.224002         0.544631         0.985893
 C         2.613744         1.009434        -0.305175
 C         3.459414        -0.111525        -1.000948
 O         4.585064        -0.841065        -0.348600
 C         4.050218        -1.880051         0.537210
 C         2.763786        -2.337674        -0.151716
 C         2.300009        -1.096843        -0.871364
 H        -0.365526         1.077938        -0.509987
 H        -0.488218        -0.584889        -0.823777
 H        -0.453891        -0.041614         0.891268
 H         2.511943         2.083045        -0.503923
 H         3.757425         0.183422        -2.027645
 H         4.860716        -2.557162         0.769678
 H         3.758545        -1.348841         1.515642
 H         2.878409        -3.228996        -0.804203
 H         1.903869        -2.530553         0.616390
 H         1.880297        -1.282667        -1.856397
