19
Iteration:  4305charge 0 multiplicity 1
 C         0.014767         0.338798        -0.106790
 C         1.426531        -0.116652        -0.282883
 O         2.216844         0.268391         0.888259
 C         2.643112         0.845518        -0.379273
 C         3.413025        -0.130362        -1.036176
 O         4.489452        -0.646644        -0.335750
 C         4.112693        -1.584465         0.631037
 C         2.795739        -2.369571         0.093488
 C         2.246144        -1.220929        -0.879920
 H        -0.334018         0.428652        -1.180296
 H        -0.627685        -0.446063         0.256360
 H        -0.078306         1.399823         0.280330
 H         2.634847         1.925127        -0.353733
 H         3.803183         0.126185        -2.062379
 H         4.891399        -2.377050         0.787305
 H         4.100956        -1.119882         1.626941
 H         3.304118        -3.285717        -0.412565
 H         2.080149        -2.479899         0.950282
 H         1.962256        -1.604759        -1.939596
