19
Iteration:  3710
 C        -0.061056         0.228905        -0.121070
 C         1.392925        -0.031817        -0.160366
 O         2.131674         0.568679         0.948417
 C         2.577466         0.887287        -0.397880
 C         3.495429        -0.228854        -0.961031
 O         4.606270        -0.684799        -0.236619
 C         4.198893        -1.848561         0.497145
 C         2.821599        -2.342751        -0.158515
 C         2.211605        -1.180237        -0.788614
 H        -0.454700         0.015503        -1.116517
 H        -0.620570        -0.211423         0.780772
 H        -0.218790         1.326552        -0.061711
 H         2.440763         2.004783        -0.477933
 H         3.822125         0.065851        -2.005562
 H         5.042325        -2.548745         0.424235
 H         4.211969        -1.499172         1.547882
 H         3.230024        -3.147120        -0.780230
 H         2.088460        -2.889354         0.479429
 H         1.873464        -1.394380        -1.819309
