19
Iteration:  2237charge 0 multiplicity 1
 C        -0.028667         0.097381        -0.163596
 C         1.488136        -0.014903        -0.140414
 O         2.151838         0.424768         1.105631
 C         2.641540         0.954077        -0.167248
 C         3.503570        -0.043542        -0.909586
 O         4.627550        -0.762733        -0.396358
 C         3.965767        -1.795571         0.517824
 C         2.713229        -2.391320        -0.331795
 C         2.357081        -1.015319        -0.876176
 H        -0.345531        -0.953714        -0.215688
 H        -0.403459         0.427151         0.755537
 H        -0.450235         0.685302        -0.979319
 H         2.592285         2.035692        -0.389993
 H         3.796056         0.336345        -1.901137
 H         4.715517        -2.700987         0.669740
 H         3.688420        -1.225220         1.421923
 H         3.148152        -3.049319        -1.056954
 H         1.986483        -2.746376         0.370582
 H         1.984317        -1.221189        -1.894027
