19
Iteration:  4794
 C        -0.030964         0.151756        -0.431925
 C         1.426843         0.035504        -0.146219
 O         2.082463         0.515149         1.002732
 C         2.652901         0.999990        -0.359925
 C         3.418218        -0.211850        -0.972680
 O         4.583386        -0.673393        -0.324720
 C         4.286803        -1.933377         0.283241
 C         2.798295        -2.273470         0.341312
 C         2.209421        -1.165459        -0.711971
 H        -0.201050         0.012263        -1.450822
 H        -0.607726        -0.607096         0.038002
 H        -0.331396         1.159508        -0.215332
 H         2.443123         1.997326        -0.678053
 H         3.367583        -0.088059        -2.078831
 H         5.009507        -2.596001        -0.297585
 H         4.626425        -1.840548         1.324187
 H         2.610751        -3.326038         0.062882
 H         2.335474        -2.057132         1.310801
 H         1.821358        -1.682544        -1.606110
