19
Iteration:  1351
 C        -0.058672         0.327126        -0.280700
 C         1.391208         0.002369        -0.177656
 O         2.071070         0.510917         1.092366
 C         2.565610         0.870664        -0.181237
 C         3.457444        -0.126441        -0.814289
 O         4.462473        -0.601230         0.024760
 C         4.331863        -2.062129        -0.022196
 C         2.873003        -2.387623        -0.174844
 C         2.296251        -1.124596        -0.776950
 H        -0.689829        -0.201335         0.413311
 H        -0.179829         1.366774        -0.098547
 H        -0.351807         0.150776        -1.345486
 H         2.501384         1.930685        -0.477369
 H         3.768619         0.200136        -1.833684
 H         4.812726        -2.502763        -0.952470
 H         4.868099        -2.344432         0.916962
 H         2.951108        -3.342684        -0.885719
 H         2.297383        -2.812569         0.651356
 H         2.062061        -1.315197        -1.829029
