19
Iteration:  4921charge 0 multiplicity 1
 C        -0.063252         0.115285        -0.350374
 C         1.413429        -0.008122        -0.187152
 O         2.094501         0.788436         0.901202
 C         2.548582         1.023622        -0.431549
 C         3.434879        -0.253059        -0.896015
 O         4.510123        -0.648243        -0.036235
 C         4.354577        -2.071315         0.071942
 C         2.793358        -2.282352         0.308935
 C         2.258887        -1.256686        -0.723289
 H        -0.083155         0.276000        -1.480795
 H        -0.524974        -0.889428        -0.028426
 H        -0.544130         0.797755         0.322531
 H         2.831219         1.953352        -0.883007
 H         3.831485         0.172733        -1.857787
 H         4.723813        -2.677186        -0.781233
 H         5.060907        -2.380538         0.900518
 H         2.477815        -3.390723         0.142772
 H         2.626570        -2.014086         1.335680
 H         1.897252        -1.612932        -1.734275
