19
Iteration:  2825
 C         0.038874        -0.073663         0.020263
 C         1.527937         0.064271        -0.248473
 O         2.313053         0.414429         0.934424
 C         2.783312         0.983905        -0.337569
 C         3.452949        -0.142437        -1.115502
 O         4.540408        -0.790585        -0.236461
 C         3.904067        -1.714147         0.640552
 C         2.630153        -2.205715        -0.148465
 C         2.229907        -1.078257        -0.958877
 H        -0.410718         0.921135         0.353866
 H        -0.458675        -0.425556        -0.823291
 H        -0.089924        -0.803029         0.845005
 H         2.835236         2.038956        -0.405718
 H         3.791078         0.181651        -2.131387
 H         4.668327        -2.465793         0.933146
 H         3.624580        -1.069894         1.474880
 H         2.924724        -2.948203        -0.845431
 H         1.745438        -2.372319         0.428496
 H         1.781475        -1.377249        -1.950871
