19
Iteration:   248charge 0 multiplicity 1
 C        -0.056080         0.133130        -0.034492
 C         1.483636         0.073557        -0.333717
 O         1.915648         0.366244         1.012372
 C         2.647057         0.972614        -0.075346
 C         3.625698        -0.130347        -0.914200
 O         4.686521        -0.708773        -0.212080
 C         4.097768        -1.911106         0.413090
 C         2.726830        -2.303062        -0.290772
 C         2.326325        -1.009351        -1.028454
 H        -0.306193         1.161673         0.292191
 H        -0.795427        -0.140590        -0.891923
 H        -0.282126        -0.587207         0.880537
 H         2.753655         2.065172        -0.067096
 H         4.070429         0.321946        -1.806796
 H         4.795571        -2.787834         0.315092
 H         3.885665        -1.636781         1.443249
 H         2.842082        -3.201216        -1.047038
 H         2.007570        -2.665225         0.551177
 H         2.044560        -1.282455        -2.034876
