19
Iteration:   408
 C        -0.003899         0.152788        -0.354021
 C         1.451600        -0.084416        -0.038129
 O         2.300344         0.233209         1.085659
 C         2.670295         0.944797        -0.137355
 C         3.407827        -0.078514        -0.979311
 O         4.513759        -0.611829        -0.299361
 C         4.086636        -1.883211         0.388371
 C         2.682318        -2.227199        -0.072517
 C         2.274071        -1.015615        -0.928619
 H        -0.759304         0.072157         0.336255
 H        -0.041315         1.095065        -0.868965
 H        -0.149528        -0.531904        -1.095956
 H         3.005051         1.986012        -0.022342
 H         3.755434         0.334741        -1.947283
 H         4.803191        -2.535199         0.068170
 H         4.110601        -1.686630         1.487974
 H         2.646370        -3.140989        -0.571184
 H         1.865039        -2.265010         0.697538
 H         1.781092        -1.307633        -1.923346
