19
Iteration:  4495charge 0 multiplicity 1
 C         0.015482         0.032055        -0.413158
 C         1.479225         0.046856        -0.241683
 O         2.052626         0.729027         0.971204
 C         2.596086         1.020516        -0.373387
 C         3.434713        -0.176585        -0.849302
 O         4.556007        -0.636183        -0.181263
 C         4.393796        -2.095324         0.039709
 C         2.728733        -2.314707         0.348487
 C         2.148873        -1.194262        -0.621235
 H        -0.175666        -0.156086        -1.443877
 H        -0.422032        -0.795094         0.071176
 H        -0.439666         0.946739        -0.070442
 H         2.594640         2.096702        -0.600114
 H         3.594793         0.204374        -1.940510
 H         4.659519        -2.611341        -0.873863
 H         5.035449        -2.483482         0.875670
 H         2.516020        -3.352808         0.079050
 H         2.504927        -1.891392         1.408420
 H         1.692556        -1.580866        -1.533686
