19
Iteration:  1134
 C        -0.014166         0.535920        -0.480894
 C         1.394084        -0.107356        -0.116266
 O         2.069792         0.129115         1.204794
 C         2.586782         0.769985         0.058351
 C         3.385534        -0.095381        -1.038660
 O         4.700048        -0.731963        -0.621056
 C         4.187440        -1.647391         0.512668
 C         2.882239        -2.287917        -0.022730
 C         2.213582        -1.190485        -0.811811
 H        -0.881373        -0.199429        -0.554287
 H        -0.425236         1.279477         0.249935
 H         0.069838         1.025632        -1.489346
 H         2.731831         1.870115         0.137060
 H         3.410675         0.391669        -2.018876
 H         4.990833        -2.385735         0.650164
 H         4.041637        -1.160743         1.567598
 H         3.090069        -2.955098        -0.819852
 H         2.251608        -2.723000         0.698573
 H         1.645182        -1.573813        -1.693001
