19
Iteration:   124
 C        -0.094226         0.187029        -0.175369
 C         1.453270         0.143995        -0.384831
 O         1.929556         0.144172         1.031531
 C         2.715984         0.862527         0.049774
 C         3.573888        -0.038272        -0.907094
 O         4.681702        -0.717756        -0.445013
 C         4.125855        -1.841362         0.448285
 C         2.738810        -2.245216        -0.104365
 C         2.333831        -1.004049        -1.006428
 H        -0.500527         1.097263         0.434377
 H        -0.819938         0.025057        -1.039361
 H        -0.151807        -0.713544         0.509103
 H         2.901154         1.941150         0.291201
 H         3.801900         0.625730        -1.739067
 H         4.961979        -2.464208         0.484249
 H         3.913671        -1.435179         1.502263
 H         2.658176        -3.305618        -0.431147
 H         2.017796        -2.221029         0.836266
 H         2.134672        -1.485058        -2.010990
