19
Iteration:  4852
 C        -0.108368         0.345556        -0.418805
 C         1.362400        -0.045504        -0.296543
 O         1.944342         0.429446         0.991953
 C         2.528291         0.874839        -0.306867
 C         3.428184        -0.189355        -0.918230
 O         4.630864        -0.702764        -0.327322
 C         4.457989        -2.025081         0.152917
 C         2.846036        -2.076969         0.476215
 C         2.290305        -1.228184        -0.718098
 H        -0.501353        -0.112886        -1.334845
 H        -0.676627         0.283374         0.407583
 H        -0.028831         1.417415        -0.622855
 H         2.556193         2.004684        -0.436781
 H         3.607028         0.099390        -2.001431
 H         4.951260        -2.741047        -0.516489
 H         5.021318        -2.133788         1.143602
 H         2.401634        -3.023566         0.349473
 H         2.634755        -1.660082         1.486379
 H         2.031266        -1.957341        -1.480812
