19
Iteration:  1234charge 0 multiplicity 1
 C        -0.029586         0.035135        -0.279079
 C         1.446391         0.101722        -0.229057
 O         2.034685         0.230458         1.039869
 C         2.651263         0.916991        -0.101813
 C         3.526170         0.009643        -0.825919
 O         4.660418        -0.702417        -0.254296
 C         4.148249        -1.976475         0.151621
 C         2.640342        -2.057684         0.032580
 C         2.362632        -1.027565        -0.936164
 H        -0.277630        -0.791034         0.486851
 H        -0.574105         0.902266         0.030783
 H        -0.433271        -0.288487        -1.262776
 H         2.741715         1.990823         0.074660
 H         3.796551         0.435330        -1.795094
 H         4.514412        -2.771780        -0.456428
 H         4.441502        -2.045474         1.236582
 H         2.335157        -2.960012        -0.314897
 H         2.008359        -1.922425         0.900977
 H         2.248321        -1.348443        -1.938823
