19
Iteration:  2389
 C        -0.027817         0.195178        -0.523093
 C         1.427607         0.093268        -0.164371
 O         1.882507         0.433897         1.121864
 C         2.590099         1.005059        -0.057028
 C         3.515554        -0.096192        -0.778443
 O         4.693796        -0.736751        -0.395500
 C         4.318559        -2.163616        -0.055034
 C         2.774877        -2.173461         0.282110
 C         2.271998        -1.083348        -0.688234
 H         0.057529         0.472778        -1.619662
 H        -0.497295        -0.795109        -0.390429
 H        -0.660470         1.020907        -0.132662
 H         2.641183         2.060336        -0.132346
 H         3.635754         0.299992        -1.784066
 H         4.459471        -2.735961        -0.979785
 H         4.973495        -2.472103         0.760972
 H         2.313748        -3.196067         0.078426
 H         2.451389        -1.941457         1.272528
 H         1.817502        -1.517132        -1.599064
