19
Iteration:   229
 C        -0.082482         0.224496        -0.081970
 C         1.406165        -0.014062        -0.234502
 O         2.066025         0.518270         1.018280
 C         2.552620         0.928493        -0.202759
 C         3.512390        -0.054754        -0.771843
 O         4.600995        -0.756965        -0.173348
 C         4.108548        -1.964215         0.415549
 C         2.883091        -2.406771        -0.425057
 C         2.349911        -1.058618        -0.948880
 H        -0.210280         1.138780         0.497812
 H        -0.652835         0.215404        -0.981125
 H        -0.435155        -0.603779         0.524069
 H         2.634794         2.034353        -0.345550
 H         3.827635         0.377584        -1.752100
 H         4.968778        -2.692426         0.409460
 H         3.851588        -1.748518         1.432496
 H         3.231868        -3.130300        -1.264558
 H         2.171937        -2.877539         0.195047
 H         2.039798        -1.078225        -1.961563
