19
Iteration:    37charge 0 multiplicity 1
 C        -0.064170         0.514715        -0.285800
 C         1.335304         0.004956        -0.175213
 O         1.888301         0.372377         1.130908
 C         2.539009         0.853745        -0.139013
 C         3.456655        -0.190881        -0.866669
 O         4.686899        -0.746998        -0.382207
 C         4.308359        -1.875095         0.398320
 C         2.997562        -2.377090        -0.224110
 C         2.274647        -1.167291        -0.791047
 H        -0.185054         1.281093         0.588396
 H        -0.351680         1.023773        -1.261029
 H        -0.800266        -0.317522        -0.048720
 H         2.493947         1.969985        -0.173077
 H         3.634941         0.146004        -1.891464
 H         5.040289        -2.619498         0.222187
 H         4.240251        -1.561138         1.485765
 H         3.254843        -2.830154        -1.277308
 H         2.298107        -3.148722         0.445243
 H         1.864611        -1.443664        -1.785735
