19
Iteration:  2991
 C        -0.033350         0.265142        -0.283846
 C         1.475926         0.112898        -0.298855
 O         2.062970         0.168929         1.129679
 C         2.734272         0.816536        -0.188629
 C         3.425762        -0.271274        -1.084253
 O         4.607619        -0.871928        -0.613264
 C         4.246327        -1.603784         0.488574
 C         2.714525        -2.054295         0.277384
 C         2.218809        -1.105684        -0.891789
 H        -0.529218        -0.702665        -0.633658
 H        -0.435676         0.609101         0.768125
 H        -0.414748         1.106627        -0.903281
 H         3.057563         1.848037         0.212445
 H         3.591050         0.263178        -2.093012
 H         4.822659        -2.549868         0.488630
 H         4.310747        -1.246329         1.611008
 H         2.685581        -3.035083        -0.065041
 H         2.014887        -1.615137         1.008124
 H         1.648668        -1.689711        -1.618775
