19
Iteration:  4537charge 0 multiplicity 1
 C        -0.099287         0.153032        -0.383410
 C         1.327680         0.078567        -0.232263
 O         1.998709         0.630887         0.878186
 C         2.507179         0.962709        -0.339278
 C         3.430080        -0.179626        -0.866431
 O         4.738408        -0.695881        -0.124136
 C         4.369390        -2.122293         0.012195
 C         2.836896        -2.207740         0.389262
 C         2.258268        -1.181705        -0.664443
 H        -0.469845         0.574860        -1.335589
 H        -0.533462        -0.817022        -0.261204
 H        -0.488615         0.913736         0.359895
 H         2.545365         1.965232        -0.796841
 H         3.795522        -0.222858        -1.905234
 H         4.482084        -2.762814        -0.903684
 H         5.155344        -2.498086         0.770837
 H         2.258892        -3.149694         0.418374
 H         2.893188        -1.738157         1.471369
 H         1.869033        -1.580314        -1.588588
