19
Iteration:  2765
 C        -0.043128         0.484729        -0.230878
 C         1.364311         0.066138        -0.165667
 O         2.126921         0.492440         1.017580
 C         2.634465         0.839868        -0.256307
 C         3.356931        -0.227845        -0.979109
 O         4.616509        -0.644222        -0.288191
 C         4.299727        -1.941634         0.368874
 C         2.883391        -2.430581        -0.114780
 C         2.178698        -1.214477        -0.699068
 H        -0.326253         1.214403        -0.964308
 H        -0.516583        -0.477699        -0.765929
 H        -0.686894         0.583199         0.650933
 H         2.563302         1.938374        -0.363318
 H         3.537447        -0.043089        -2.025271
 H         5.147544        -2.613410         0.342141
 H         4.122575        -1.726257         1.438386
 H         2.897727        -3.305019        -0.810353
 H         2.327821        -2.931605         0.710098
 H         1.814059        -1.449307        -1.680182
