19
Iteration:   817
 C        -0.017973         0.390139        -0.340036
 C         1.383264        -0.029754         0.007419
 O         2.233029         0.232425         1.108434
 C         2.522220         0.864185        -0.220946
 C         3.394800        -0.128439        -0.974620
 O         4.557959        -0.670240        -0.293194
 C         4.234812        -1.783195         0.459517
 C         2.908071        -2.363652        -0.179269
 C         2.170376        -1.122657        -0.882732
 H        -0.912130        -0.034334         0.053982
 H        -0.033503         1.518022        -0.266920
 H        -0.119618         0.287082        -1.407774
 H         2.451111         1.989197        -0.218938
 H         3.703118         0.179645        -2.011129
 H         5.132638        -2.484346         0.357482
 H         3.995739        -1.595037         1.522998
 H         2.980099        -3.141719        -1.018907
 H         2.315202        -2.776651         0.624517
 H         1.552452        -1.196110        -1.825577
