19
Iteration:  1789
 C        -0.000524         0.395868        -0.419138
 C         1.407313        -0.085402        -0.084968
 O         2.086115         0.316286         1.082802
 C         2.566804         0.883225        -0.157664
 C         3.415225        -0.114430        -0.890424
 O         4.459616        -0.533048        -0.041075
 C         4.348509        -2.033326        -0.020972
 C         2.878257        -2.302486        -0.003208
 C         2.225081        -1.176256        -0.807799
 H        -0.781593         0.054314         0.324280
 H         0.097774         1.537169        -0.402680
 H        -0.253408        -0.004281        -1.421869
 H         2.590525         1.957910        -0.153850
 H         3.824936         0.314287        -1.808211
 H         4.852953        -2.341565        -0.947069
 H         4.823744        -2.448894         0.808796
 H         2.632834        -3.312578        -0.296716
 H         2.466469        -2.019252         0.942229
 H         1.783376        -1.408741        -1.809496
