19
Iteration:  3628
 C        -0.123197         0.185736        -0.249433
 C         1.439058         0.038355        -0.415115
 O         2.026874         0.520045         0.899315
 C         2.603578         0.943418        -0.289545
 C         3.461083        -0.158258        -0.857094
 O         4.517454        -0.692791        -0.086345
 C         4.357858        -2.107634         0.018624
 C         2.785016        -2.187665         0.395824
 C         2.354105        -1.115769        -0.825396
 H        -0.768589         0.139397        -1.131317
 H        -0.472843        -0.646821         0.296596
 H        -0.242753         1.080236         0.324798
 H         2.579533         2.045192        -0.211680
 H         3.763288         0.206948        -1.842991
 H         4.486423        -2.635357        -0.967804
 H         5.164896        -2.293839         0.727804
 H         2.521290        -3.228622         0.181513
 H         2.467198        -1.722872         1.295812
 H         2.122483        -1.683854        -1.737029
