19
Iteration:  1670
 C        -0.016903         0.386699        -0.349367
 C         1.413411        -0.024576        -0.101994
 O         2.058234         0.261059         1.077253
 C         2.535864         0.910785        -0.194243
 C         3.401521        -0.095598        -0.954550
 O         4.529635        -0.595256        -0.089497
 C         4.382172        -2.008943         0.090664
 C         2.785115        -2.250574         0.043599
 C         2.282809        -1.183976        -0.901392
 H        -0.858651        -0.334807        -0.403605
 H        -0.261032         1.262400         0.339673
 H         0.097284         0.626732        -1.379593
 H         2.633888         2.017828        -0.145829
 H         3.732124         0.336003        -1.911349
 H         4.909898        -2.597129        -0.718127
 H         4.780156        -2.300960         1.073211
 H         2.627387        -3.279228        -0.238529
 H         2.539650        -1.936090         1.050262
 H         1.843361        -1.587789        -1.775243
