19
Iteration:   128charge 0 multiplicity 1
 C        -0.111037         0.188339        -0.143954
 C         1.410444         0.108940        -0.388722
 O         1.951676         0.185073         0.989712
 C         2.684607         0.889854         0.076511
 C         3.564851        -0.034192        -0.888265
 O         4.727026        -0.737940        -0.425612
 C         4.125448        -1.821955         0.462829
 C         2.735645        -2.249110        -0.124422
 C         2.334040        -1.037318        -1.035286
 H        -0.377809         1.043145         0.451548
 H        -0.827291         0.103170        -1.005713
 H        -0.208114        -0.717947         0.532311
 H         2.968279         1.894691         0.296020
 H         3.871647         0.635927        -1.721176
 H         5.011558        -2.538821         0.479840
 H         3.915561        -1.438988         1.437603
 H         2.652917        -3.357887        -0.510239
 H         2.004174        -2.251707         0.784895
 H         2.067864        -1.396423        -2.013705
