19
Iteration:  2076
 C        -0.049820         0.191388        -0.364289
 C         1.402644         0.015171        -0.194284
 O         1.992122         0.358758         1.077301
 C         2.503277         0.966049        -0.136380
 C         3.521680        -0.062573        -0.830789
 O         4.554499        -0.673781        -0.072071
 C         4.318491        -2.095511        -0.120107
 C         2.785402        -2.197464         0.090161
 C         2.362581        -1.036116        -0.784414
 H        -0.494201        -0.812084        -0.154644
 H        -0.531520         0.967557         0.205807
 H        -0.161030         0.608936        -1.395261
 H         2.658774         2.071130        -0.086521
 H         3.877058         0.221020        -1.828694
 H         4.574406        -2.594277        -1.199485
 H         4.982596        -2.635785         0.588121
 H         2.423557        -3.146209        -0.231874
 H         2.500455        -1.870458         1.121472
 H         2.150573        -1.468808        -1.729316
