19
Iteration:  3173charge 0 multiplicity 1
 C         0.005213         0.099313        -0.085261
 C         1.487090         0.031987        -0.214893
 O         2.270959         0.490503         0.888851
 C         2.661170         0.983042        -0.379883
 C         3.490808        -0.210376        -1.046230
 O         4.539983        -0.788074        -0.407247
 C         4.003174        -1.712120         0.673892
 C         2.694291        -2.293587         0.045158
 C         2.226272        -1.183192        -0.878343
 H        -0.478097         0.051141        -1.084058
 H        -0.188204        -0.664455         0.598579
 H        -0.310336         1.077797         0.220329
 H         2.930841         2.063457        -0.455585
 H         3.739484         0.062793        -2.064467
 H         4.848824        -2.441195         0.832656
 H         3.718850        -1.043459         1.505367
 H         3.074449        -3.265528        -0.404753
 H         2.007250        -2.573843         0.887263
 H         1.733643        -1.417732        -1.850382
