19
Iteration:  4170charge 0 multiplicity 1
 C         0.000359         0.267519        -0.255347
 C         1.435699        -0.095139        -0.207215
 O         2.232981         0.279183         0.933794
 C         2.598442         0.837077        -0.307016
 C         3.389808        -0.230589        -1.111298
 O         4.512420        -0.600819        -0.383918
 C         4.141617        -1.707243         0.632811
 C         2.803000        -2.209258         0.156403
 C         2.265618        -1.156596        -0.887250
 H        -0.153616         0.498923        -1.306433
 H        -0.770488        -0.396785         0.162736
 H        -0.017437         1.176661         0.344444
 H         2.683338         1.924629        -0.167552
 H         3.655470         0.053943        -2.131253
 H         5.008814        -2.417888         0.664633
 H         4.226061        -1.227307         1.647029
 H         2.923147        -3.271129        -0.265611
 H         2.038444        -2.256581         0.952037
 H         1.730610        -1.742718        -1.686411
