19
Iteration:  1522
 C        -0.005586         0.280647        -0.182451
 C         1.402512        -0.072201        -0.272499
 O         2.028856         0.342479         0.943083
 C         2.517054         0.953633        -0.253407
 C         3.525663        -0.077683        -0.845446
 O         4.555072        -0.621109         0.016825
 C         4.257295        -2.041781         0.040688
 C         2.795104        -2.240931         0.050589
 C         2.333940        -1.055547        -0.887334
 H        -0.611826        -0.497285         0.373744
 H         0.009695         1.194772         0.497917
 H        -0.537196         0.419101        -1.221649
 H         2.608697         2.027796        -0.337473
 H         3.985620         0.029893        -1.843656
 H         4.701523        -2.621045        -0.825134
 H         4.765517        -2.607122         0.877295
 H         2.581966        -3.218738        -0.377753
 H         2.138450        -2.257648         0.947482
 H         1.963805        -1.291624        -1.965497
