19
Iteration:  1779
 C         0.017561         0.345874        -0.429708
 C         1.445002        -0.008778        -0.157755
 O         1.998146         0.313442         1.093083
 C         2.600269         0.910831        -0.114044
 C         3.436034        -0.166133        -0.848900
 O         4.500462        -0.552735        -0.041882
 C         4.366178        -2.038346        -0.107331
 C         2.811404        -2.223004         0.084883
 C         2.249576        -1.120683        -0.868945
 H        -0.580229        -0.224726         0.406957
 H        -0.291544         1.495493        -0.310316
 H        -0.364886        -0.083254        -1.381171
 H         2.726809         1.954159         0.006565
 H         3.660238        -0.020909        -1.917454
 H         4.755980        -2.490760        -1.023204
 H         4.987172        -2.400648         0.689595
 H         2.564878        -3.245347        -0.185785
 H         2.627448        -2.305640         1.164397
 H         1.682594        -1.572060        -1.677866
