19
Iteration:  1567
 C        -0.051695        -0.098465        -0.299894
 C         1.483818         0.071032        -0.136380
 O         2.165505         0.507823         1.041176
 C         2.657154         1.018401        -0.213373
 C         3.570739        -0.039570        -0.887842
 O         4.547463        -0.719091        -0.082963
 C         4.143202        -2.093491         0.102542
 C         2.639468        -2.145972        -0.066270
 C         2.255224        -0.960114        -0.826711
 H        -0.358839        -0.647814         0.637120
 H        -0.588554         0.817986        -0.515444
 H        -0.032712        -0.798337        -1.222428
 H         2.594949         2.085600        -0.260347
 H         4.035832         0.399231        -1.782525
 H         4.667055        -2.784948        -0.613550
 H         4.576756        -2.326724         1.061739
 H         2.230704        -3.041373        -0.525166
 H         2.160212        -2.260708         0.893252
 H         1.798662        -1.401822        -1.781790
