19
Iteration:  3575
 C        -0.046578         0.151491        -0.548236
 C         1.419950         0.020879        -0.209473
 O         2.093707         0.559734         1.108242
 C         2.570387         0.993722        -0.202232
 C         3.379044        -0.162090        -0.874505
 O         4.582291        -0.681827        -0.360610
 C         4.270436        -2.068361         0.071881
 C         2.839826        -2.246795         0.364644
 C         2.304019        -1.130734        -0.655006
 H        -0.032851         0.225681        -1.694318
 H        -0.546166        -0.768061        -0.298316
 H        -0.671586         1.008507        -0.253346
 H         2.424212         2.090052        -0.327394
 H         3.454067         0.279821        -1.919838
 H         4.757396        -2.722238        -0.710003
 H         4.826333        -2.240297         1.002871
 H         2.409185        -3.202188         0.171105
 H         2.740094        -1.907232         1.385325
 H         1.843411        -1.830207        -1.399536
