19
Iteration:  2182
 C        -0.055607         0.150206        -0.150266
 C         1.413969         0.031134        -0.279696
 O         2.165296         0.153686         0.963947
 C         2.621062         0.958254        -0.088516
 C         3.516298        -0.046310        -0.931598
 O         4.681467        -0.658151        -0.290682
 C         4.127518        -1.819443         0.417657
 C         2.659107        -2.253177        -0.086546
 C         2.258848        -0.997448        -0.997401
 H        -0.467048        -0.552479         0.589071
 H        -0.388115         1.145704         0.093617
 H        -0.443797        -0.234939        -1.085297
 H         2.766468         2.073742         0.134712
 H         3.874289         0.314388        -1.909704
 H         4.855650        -2.754475         0.410418
 H         3.926638        -1.497581         1.441942
 H         2.636302        -3.253901        -0.602094
 H         2.111737        -2.445594         0.840426
 H         1.955599        -1.333689        -2.020154
