19
Iteration:   671charge 0 multiplicity 1
 C        -0.143776         0.540415        -0.051973
 C         1.323655         0.011839        -0.242106
 O         1.967223         0.414110         0.964200
 C         2.545570         0.911074        -0.197142
 C         3.499685        -0.171362        -0.904168
 O         4.568706        -0.774697        -0.309772
 C         4.273058        -1.862485         0.517204
 C         3.018732        -2.480677        -0.284017
 C         2.353601        -1.192932        -0.882047
 H        -0.672145         0.051400         0.796772
 H        -0.156279         1.585200         0.236492
 H        -0.699100         0.424835        -1.007152
 H         2.682203         1.969563        -0.248128
 H         3.812297         0.193991        -1.896393
 H         5.130343        -2.438112         0.563234
 H         3.939867        -1.562341         1.617412
 H         3.394417        -3.123764        -1.068111
 H         2.395472        -3.193550         0.254336
 H         2.010287        -1.544200        -1.915880
