19
Iteration:  2042
 C        -0.099890         0.131687        -0.262683
 C         1.409465         0.103295        -0.386634
 O         1.936788         0.311315         1.009468
 C         2.603647         0.936338        -0.029401
 C         3.546718        -0.079362        -0.784968
 O         4.614800        -0.668599        -0.108571
 C         4.291962        -2.100759        -0.070114
 C         2.714620        -2.076748         0.092892
 C         2.385905        -1.039210        -0.856956
 H        -0.388159        -0.902855         0.051663
 H        -0.565267         0.811296         0.434420
 H        -0.545722         0.118368        -1.256860
 H         3.070837         1.959641         0.154238
 H         3.729397         0.197629        -1.835552
 H         4.473702        -2.587905        -1.129478
 H         4.889232        -2.522681         0.743921
 H         2.262041        -3.043526        -0.027638
 H         2.643426        -1.805301         1.183734
 H         2.234989        -1.336497        -1.876049
