19
Iteration:  2604charge 0 multiplicity 1
 C        -0.049385         0.424642        -0.140117
 C         1.396168        -0.045699        -0.181107
 O         2.313997         0.389559         1.037469
 C         2.524884         0.893878        -0.257937
 C         3.450528        -0.247552        -1.013808
 O         4.463636        -0.621869        -0.106282
 C         4.138173        -1.862416         0.467915
 C         2.896422        -2.417421        -0.338017
 C         2.224731        -1.110263        -0.897432
 H        -0.749298        -0.238360        -0.542441
 H        -0.163217         0.362801         0.951282
 H        -0.141398         1.434139        -0.486025
 H         2.531934         1.990105        -0.231001
 H         3.922358        -0.064211        -2.034755
 H         4.991859        -2.621103         0.312947
 H         3.940807        -1.754575         1.549361
 H         3.196012        -3.062616        -1.186363
 H         2.241328        -3.008046         0.246716
 H         1.674134        -1.272994        -1.871721
