19
Iteration:  3436charge 0 multiplicity 1
 C         0.048268         0.007435        -0.073403
 C         1.554106         0.025390        -0.102477
 O         2.266954         0.650189         0.973913
 C         2.647366         0.963355        -0.437847
 C         3.416720        -0.216397        -1.062687
 O         4.563118        -0.818375        -0.367642
 C         3.980979        -1.673993         0.657605
 C         2.720318        -2.408717        -0.055739
 C         2.199918        -1.100490        -0.926825
 H        -0.156804         0.231562        -1.139296
 H        -0.249942        -0.979820         0.264416
 H        -0.597541         0.670688         0.524187
 H         2.656353         2.060428        -0.575137
 H         3.782011         0.034268        -2.055060
 H         4.774199        -2.379205         0.930929
 H         3.712947        -1.187737         1.601418
 H         3.042821        -3.135052        -0.805127
 H         1.996803        -2.669822         0.774565
 H         1.816285        -1.438227        -1.934805
