19
Iteration:   556
 C        -0.072838         0.321889        -0.220516
 C         1.381555        -0.000018        -0.250985
 O         1.997779         0.329540         1.067780
 C         2.532809         0.999270        -0.115615
 C         3.487560        -0.114792        -0.851797
 O         4.655092        -0.776589        -0.358757
 C         4.242560        -1.911243         0.416529
 C         2.854101        -2.306881        -0.150474
 C         2.319673        -1.068929        -0.915156
 H        -0.561741        -0.502053         0.381048
 H        -0.075669         1.182379         0.509810
 H        -0.614393         0.624361        -1.172098
 H         2.462088         2.040108        -0.363124
 H         3.794766         0.205999        -1.848417
 H         4.991676        -2.812734         0.213672
 H         4.298764        -1.696708         1.467584
 H         3.014850        -3.131428        -0.900786
 H         2.257937        -2.826590         0.576183
 H         1.903585        -1.295231        -1.876376
