19
Iteration:  4145charge 0 multiplicity 1
 C        -0.080828         0.421844        -0.169817
 C         1.405875        -0.042140        -0.252575
 O         2.169889         0.202284         0.905467
 C         2.578338         0.805620        -0.387374
 C         3.440814        -0.175062        -1.023778
 O         4.659641        -0.694654        -0.361944
 C         4.116868        -1.538215         0.612855
 C         2.862810        -2.314775         0.092389
 C         2.175627        -1.244932        -0.903623
 H        -0.345340         0.716853        -1.144728
 H        -0.698064        -0.384877         0.272028
 H        -0.043816         1.192425         0.602462
 H         2.483465         1.893454        -0.374192
 H         3.824745         0.089427        -2.016539
 H         5.001262        -2.138586         0.887518
 H         4.120721        -1.136631         1.628630
 H         3.166940        -3.250880        -0.277128
 H         2.260882        -2.449312         1.046573
 H         1.827254        -1.941512        -1.678471
