19
Iteration:   357charge 0 multiplicity 1
 C        -0.174091         0.637070        -0.216117
 C         1.241001         0.014864        -0.117727
 O         1.774010         0.360500         1.108861
 C         2.608166         0.856001        -0.141735
 C         3.519241        -0.201427        -0.893287
 O         4.684662        -0.791078        -0.400170
 C         4.341417        -1.884663         0.371942
 C         3.029531        -2.401196        -0.186608
 C         2.387954        -1.203662        -0.894931
 H        -0.389301         0.992017         0.831423
 H        -0.277079         1.429935        -1.009460
 H        -0.899349        -0.277044        -0.438264
 H         2.688675         1.960722        -0.286654
 H         3.838204         0.242374        -1.853958
 H         5.261893        -2.616634         0.239218
 H         4.276800        -1.577046         1.431676
 H         3.089451        -3.330346        -0.810680
 H         2.391656        -2.622364         0.711148
 H         2.097367        -1.455852        -1.935472
