19
Iteration:   262charge 0 multiplicity 1
 C        -0.032544         0.098657        -0.168041
 C         1.438787         0.102137        -0.262953
 O         2.105022         0.188661         0.998257
 C         2.621317         1.036426        -0.079613
 C         3.568116        -0.019634        -0.925619
 O         4.611683        -0.784743        -0.269557
 C         4.067544        -1.900739         0.467315
 C         2.704827        -2.202631        -0.156016
 C         2.335293        -0.977661        -1.047633
 H        -0.511351         1.079692         0.022842
 H        -0.483170        -0.378933        -1.001228
 H        -0.205996        -0.525080         0.717659
 H         2.685294         2.100642         0.258353
 H         3.931316         0.387876        -1.895724
 H         4.808443        -2.709781         0.284902
 H         4.041987        -1.726933         1.528749
 H         2.809305        -3.198691        -0.755603
 H         1.932702        -2.339552         0.545830
 H         1.951495        -1.124371        -2.023167
