19
Iteration:  2538
 C         0.001889        -0.064821        -0.068449
 C         1.547847         0.065640        -0.170759
 O         2.310307         0.478096         0.939814
 C         2.679515         1.026585        -0.290988
 C         3.554655        -0.126334        -0.997246
 O         4.541542        -0.790229        -0.286751
 C         3.882518        -1.794705         0.590338
 C         2.630714        -2.287003        -0.190548
 C         2.248090        -1.006511        -0.934374
 H        -0.457137        -0.466024        -0.913498
 H        -0.232215        -0.815136         0.726436
 H        -0.459340         0.830848         0.221261
 H         2.791585         2.081643        -0.302619
 H         3.918276         0.184684        -2.001202
 H         4.678033        -2.610459         0.634254
 H         3.775215        -1.490221         1.635316
 H         3.123193        -2.975345        -0.899852
 H         1.876985        -2.836927         0.353316
 H         1.684326        -0.988130        -1.887312
