19
Iteration:  1966charge 0 multiplicity 1
 C         0.030769         0.407522        -0.265998
 C         1.390578         0.030014        -0.107788
 O         2.059557         0.303223         1.078764
 C         2.549789         0.935126        -0.156862
 C         3.369226        -0.146017        -0.894458
 O         4.521984        -0.546213        -0.213179
 C         4.290732        -1.942464         0.306134
 C         2.885892        -2.462474        -0.285141
 C         2.289272        -1.164231        -0.846578
 H        -0.630070        -0.195516         0.425820
 H        -0.046511         1.442025         0.129141
 H        -0.390537         0.267629        -1.260857
 H         2.581830         2.064032        -0.253226
 H         3.632856         0.286015        -1.851438
 H         5.149203        -2.640570         0.293710
 H         4.109789        -1.825307         1.364729
 H         2.992238        -3.187414        -1.032207
 H         2.498161        -3.136449         0.469997
 H         1.982220        -1.405579        -1.844885
