19
Iteration:  1689
 C        -0.102944         0.268670        -0.520176
 C         1.392261         0.089463        -0.175341
 O         2.133714         0.288642         1.098030
 C         2.584506         0.918467        -0.080231
 C         3.499225        -0.098046        -0.839933
 O         4.589536        -0.618306        -0.198633
 C         4.293493        -2.018552         0.022361
 C         2.787218        -2.254376         0.135561
 C         2.205222        -1.083732        -0.732612
 H        -0.467174        -0.798735        -0.454460
 H        -0.605638         0.808040         0.298478
 H        -0.300568         0.569916        -1.611940
 H         2.705542         2.029347        -0.119952
 H         3.730996         0.078247        -1.901019
 H         4.678235        -2.537808        -0.862307
 H         4.878474        -2.336031         0.815143
 H         2.557706        -3.189093        -0.378447
 H         2.425912        -2.254259         1.137808
 H         1.781265        -1.284186        -1.738001
