19
Iteration:   879
 C        -0.126276         0.393219        -0.340719
 C         1.367557        -0.001846        -0.207453
 O         1.956800         0.256059         1.155726
 C         2.595140         0.830436        -0.003977
 C         3.465227        -0.080193        -0.921438
 O         4.750930        -0.861636        -0.652746
 C         4.238886        -1.797400         0.424996
 C         2.837728        -2.269302         0.064265
 C         2.286492        -1.034782        -0.862124
 H        -0.915928        -0.407266        -0.205515
 H        -0.359413         1.079703         0.487716
 H        -0.095432         0.890691        -1.356964
 H         2.716315         1.946780         0.019380
 H         3.656716         0.499738        -1.834755
 H         4.904553        -2.585246         0.434173
 H         4.315524        -1.295935         1.446814
 H         3.024399        -3.108546        -0.607610
 H         2.289265        -2.684588         0.867420
 H         2.026298        -1.470756        -1.871072
