19
Iteration:  4414
 C        -0.128527         0.277281        -0.267955
 C         1.397113        -0.013367        -0.273881
 O         2.138450         0.449847         0.928620
 C         2.579611         0.919286        -0.340713
 C         3.429729        -0.209978        -1.028851
 O         4.555086        -0.656744        -0.234431
 C         4.365524        -1.888628         0.374031
 C         2.816813        -2.222954         0.202358
 C         2.252557        -1.224845        -0.798440
 H        -0.775578        -0.000555        -1.145660
 H        -0.535492        -0.282983         0.567357
 H        -0.258941         1.370820        -0.179124
 H         2.571998         1.993232        -0.270783
 H         3.813180         0.219794        -1.970765
 H         4.927602        -2.781940         0.080765
 H         4.680865        -1.705501         1.423707
 H         2.761427        -3.271016        -0.195300
 H         2.182872        -2.342517         1.063641
 H         1.846903        -1.856924        -1.609455
