19
Iteration:   877charge 0 multiplicity 1
 C        -0.122848         0.417744        -0.352083
 C         1.376125         0.002506        -0.185127
 O         1.955582         0.259456         1.167152
 C         2.579128         0.824068        -0.014913
 C         3.459380        -0.094761        -0.932911
 O         4.747426        -0.851547        -0.648884
 C         4.231333        -1.794976         0.427269
 C         2.856938        -2.270020         0.043192
 C         2.295263        -1.053196        -0.851120
 H        -0.887992        -0.390520        -0.218961
 H        -0.340978         1.071853         0.452585
 H        -0.075386         0.890372        -1.341631
 H         2.625528         1.915081         0.032651
 H         3.648512         0.429663        -1.872143
 H         4.960511        -2.588243         0.461208
 H         4.278988        -1.336528         1.427325
 H         3.029248        -3.041951        -0.672223
 H         2.267601        -2.730983         0.907214
 H         2.005286        -1.463785        -1.809802
