19
Iteration:  1353
 C        -0.035892         0.316443        -0.287211
 C         1.382008         0.004089        -0.157958
 O         2.073643         0.489337         1.076896
 C         2.556395         0.884389        -0.173345
 C         3.439561        -0.115882        -0.818415
 O         4.473143        -0.610442         0.012460
 C         4.331261        -2.059747        -0.023915
 C         2.863045        -2.390101        -0.158386
 C         2.304194        -1.102674        -0.794451
 H        -0.721258        -0.213562         0.387944
 H        -0.178167         1.356384        -0.196102
 H        -0.362305         0.118057        -1.306091
 H         2.520710         1.940775        -0.398007
 H         3.788647         0.216488        -1.800472
 H         4.886164        -2.497378        -0.914564
 H         4.903501        -2.399176         0.945811
 H         2.843087        -3.337718        -0.777415
 H         2.288582        -2.747689         0.702235
 H         2.052990        -1.260673        -1.812316
