19
Iteration:  1494
 C        -0.092949         0.516994        -0.359624
 C         1.341802        -0.040114        -0.155328
 O         2.157141         0.279127         1.029311
 C         2.555348         0.858755        -0.148450
 C         3.439630        -0.099651        -0.912562
 O         4.401328        -0.537530         0.004364
 C         4.429675        -2.005144        -0.015436
 C         2.910504        -2.356170         0.053982
 C         2.236649        -1.208561        -0.881804
 H        -0.640509        -0.411329        -0.258570
 H        -0.348031         1.283845         0.312437
 H        -0.135163         0.931863        -1.355508
 H         2.673913         1.939566        -0.223220
 H         3.925054         0.075485        -1.883349
 H         5.029735        -2.474744        -0.798525
 H         4.751857        -2.299614         0.950660
 H         2.579994        -3.409762        -0.174801
 H         2.423111        -2.266491         0.998587
 H         1.813818        -1.558187        -1.786835
