19
Iteration:  4888
 C        -0.030614         0.170707        -0.490512
 C         1.379665         0.028372        -0.099346
 O         2.057000         0.615354         0.970205
 C         2.566930         0.971984        -0.405246
 C         3.398195        -0.247630        -0.919356
 O         4.555841        -0.636222        -0.204068
 C         4.433381        -2.030957         0.066999
 C         2.785513        -2.224208         0.396229
 C         2.230031        -1.205703        -0.558787
 H        -0.148231        -0.159074        -1.609038
 H        -0.856522        -0.601385        -0.119588
 H        -0.279940         1.219580        -0.558753
 H         2.814125         2.004246        -0.653085
 H         3.737580        -0.022629        -1.967529
 H         4.698960        -2.586454        -0.817381
 H         4.931477        -2.296643         1.033966
 H         2.430006        -3.227845        -0.075610
 H         2.731950        -2.269041         1.463100
 H         1.837182        -1.595151        -1.544572
