19
Iteration:  4616
 C        -0.007334         0.283062        -0.333198
 C         1.464301         0.027745        -0.191235
 O         2.037060         0.503398         0.998742
 C         2.569424         0.999204        -0.286214
 C         3.401394        -0.230298        -1.024422
 O         4.572703        -0.652105        -0.385790
 C         4.302823        -1.917403         0.445595
 C         2.821558        -2.316189         0.147977
 C         2.277034        -1.284370        -0.728715
 H        -0.349662        -0.176068        -1.245184
 H        -0.538399        -0.211192         0.488852
 H        -0.322404         1.279260        -0.283241
 H         2.494752         2.060019        -0.453140
 H         3.603516        -0.008413        -2.119437
 H         4.936339        -2.818695         0.226822
 H         4.481098        -1.525173         1.442506
 H         2.898683        -3.316061        -0.381653
 H         2.195463        -2.355164         1.082606
 H         1.758439        -1.615574        -1.649391
