19
Iteration:   957
 C         0.002139         0.209365        -0.167736
 C         1.459980         0.053324        -0.133492
 O         2.221898         0.454727         1.061921
 C         2.562815         1.008881        -0.316829
 C         3.452524        -0.093358        -0.957666
 O         4.445350        -0.654929        -0.108039
 C         4.233280        -2.087956         0.303062
 C         2.781727        -2.372046        -0.184903
 C         2.252513        -1.061939        -0.886588
 H        -0.439037        -0.502283         0.560894
 H        -0.289519         1.280487         0.082796
 H        -0.534375        -0.065391        -1.112141
 H         2.622848         2.103706        -0.317029
 H         3.878772         0.196083        -1.939978
 H         4.930590        -2.650093        -0.219404
 H         4.361061        -2.136059         1.417178
 H         2.895703        -3.140897        -0.991898
 H         2.162891        -2.812045         0.508503
 H         1.659997        -1.269475        -1.835975
