19
Iteration:   913charge 0 multiplicity 1
 C         0.058921         0.129624        -0.260644
 C         1.461878         0.145636        -0.267032
 O         2.036957         0.112930         1.101438
 C         2.706309         0.896520        -0.035166
 C         3.474528        -0.084228        -1.017869
 O         4.622975        -0.726121        -0.466841
 C         4.134644        -1.881669         0.358496
 C         2.661889        -2.081269         0.130545
 C         2.273800        -0.987299        -0.929797
 H        -0.241935        -0.913797        -0.013581
 H        -0.442137         0.956451         0.310776
 H        -0.401703         0.230283        -1.285526
 H         2.940089         1.985247         0.058698
 H         3.584809         0.421384        -1.994763
 H         4.667557        -2.751984         0.110065
 H         4.351192        -1.571415         1.424247
 H         2.457397        -3.089613        -0.309945
 H         2.139815        -1.969219         1.004466
 H         1.988350        -1.469942        -1.928538
