19
Iteration:  4373charge 0 multiplicity 1
 C         0.032745         0.037202        -0.336008
 C         1.470481         0.006575        -0.172151
 O         2.193537         0.572154         1.007910
 C         2.564684         0.999330        -0.248843
 C         3.455385        -0.165300        -1.085155
 O         4.578783        -0.780722        -0.386463
 C         4.128358        -1.764078         0.484749
 C         2.765192        -2.274528         0.147316
 C         2.212579        -1.170876        -0.747306
 H        -0.298662         0.258135        -1.337062
 H        -0.363156        -0.929154        -0.075572
 H        -0.331279         0.927779         0.187975
 H         2.640407         2.011593        -0.628974
 H         3.631196        -0.051732        -2.197081
 H         4.977343        -2.416071         0.283881
 H         4.205201        -1.580278         1.593133
 H         2.739100        -3.138341        -0.560555
 H         2.178644        -2.574418         1.099233
 H         1.579235        -1.514343        -1.543775
