19
Iteration:  1432
 C        -0.055975         0.252087        -0.483569
 C         1.408276         0.035051        -0.178768
 O         1.859720         0.369198         1.211309
 C         2.514049         0.992514         0.016537
 C         3.480036        -0.062335        -0.750335
 O         4.644103        -0.809943        -0.372875
 C         4.399298        -2.150980        -0.009575
 C         2.831847        -2.130888         0.085658
 C         2.347002        -1.009422        -0.840128
 H        -0.602590        -0.664505        -0.138412
 H        -0.684631         1.098414        -0.053916
 H        -0.249320         0.156759        -1.540075
 H         2.669527         2.086199        -0.049662
 H         3.720986         0.432070        -1.706035
 H         4.868975        -2.914702        -0.711707
 H         5.048792        -2.249686         0.970915
 H         2.388133        -3.040708        -0.320324
 H         2.519993        -1.886704         1.155113
 H         2.023555        -1.409296        -1.812648
