19
Iteration:  3940
 C        -0.034826         0.069502        -0.385752
 C         1.409059         0.044722        -0.214873
 O         1.924080         0.725309         1.021924
 C         2.603682         0.970809        -0.240534
 C         3.469580        -0.211180        -0.927481
 O         4.620305        -0.676352        -0.197039
 C         4.328172        -2.083677         0.105625
 C         2.828081        -2.217363         0.240728
 C         2.287517        -1.214940        -0.759676
 H        -0.251190         0.098049        -1.425559
 H        -0.658061        -0.696709         0.146414
 H        -0.361953         0.943836         0.149890
 H         2.538397         2.036003        -0.398112
 H         3.780344        -0.017631        -1.977878
 H         4.654588        -2.785144        -0.679095
 H         4.984565        -2.335196         0.961983
 H         2.652955        -3.286792        -0.009877
 H         2.337494        -1.967664         1.230075
 H         1.778879        -1.383979        -1.729945
