19
Iteration:  1090
 C        -0.011875         0.092159        -0.172540
 C         1.446998         0.093726        -0.366444
 O         2.132860         0.241572         1.016978
 C         2.653569         0.968943        -0.012441
 C         3.517393        -0.061714        -0.908019
 O         4.675475        -0.701099        -0.444545
 C         4.031388        -1.868005         0.450243
 C         2.648775        -2.181626        -0.014225
 C         2.301953        -1.090849        -1.000083
 H        -0.350989        -0.831253         0.395449
 H        -0.284643         0.944251         0.551448
 H        -0.589236         0.178954        -1.127632
 H         2.824767         2.037419         0.162991
 H         3.766565         0.426690        -1.861909
 H         4.643026        -2.789114         0.364433
 H         4.132120        -1.441381         1.520864
 H         2.755981        -3.190209        -0.394510
 H         1.985647        -2.193620         0.777751
 H         1.994330        -1.552827        -2.001879
