19
Iteration:  4928charge 0 multiplicity 1
 C        -0.043775         0.109471        -0.277732
 C         1.453311        -0.015180        -0.246472
 O         2.032267         0.762426         0.838969
 C         2.580330         0.946272        -0.399890
 C         3.500175        -0.261049        -0.912051
 O         4.460562        -0.653407        -0.021787
 C         4.384527        -2.057093         0.081828
 C         2.777232        -2.291220         0.287194
 C         2.265179        -1.160613        -0.708135
 H        -0.363399         0.402836        -1.303014
 H        -0.422770        -0.811548        -0.008305
 H        -0.465232         0.809255         0.436301
 H         2.754591         2.015389        -0.800303
 H         3.871429        -0.135985        -1.970897
 H         4.800966        -2.604685        -0.816408
 H         5.109458        -2.214992         0.923143
 H         2.352928        -3.252976         0.179432
 H         2.474494        -1.915793         1.284816
 H         1.855493        -1.600013        -1.614513
