19
Iteration:  4753
 C        -0.104024         0.117916        -0.228289
 C         1.496123         0.045077        -0.195320
 O         2.126741         0.652488         0.900244
 C         2.625191         1.005480        -0.438394
 C         3.430804        -0.241432        -0.982518
 O         4.508491        -0.668728        -0.213528
 C         4.302308        -1.926383         0.416256
 C         2.786275        -2.358555         0.102281
 C         2.258527        -1.223471        -0.733385
 H        -0.352958         0.543044        -1.223730
 H        -0.548666        -0.840809        -0.148959
 H        -0.486508         0.825403         0.565487
 H         2.477470         1.953480        -0.917463
 H         3.910435        -0.016984        -1.955498
 H         4.905958        -2.738370         0.113082
 H         4.373244        -1.721857         1.521869
 H         2.724739        -3.269493        -0.382598
 H         2.361619        -2.387919         1.107310
 H         1.793292        -1.430834        -1.679239
