19
Iteration:  1799
 C        -0.002681         0.410195        -0.368145
 C         1.344535        -0.038104        -0.112548
 O         2.167105         0.307110         1.104427
 C         2.460862         0.888018        -0.175859
 C         3.427857        -0.046239        -0.877614
 O         4.470156        -0.622830        -0.035795
 C         4.392833        -1.948564         0.029748
 C         2.833489        -2.362664        -0.035687
 C         2.285248        -1.196422        -0.827303
 H        -0.914111         0.228044         0.211112
 H        -0.028440         1.531992        -0.513452
 H        -0.269604         0.246636        -1.431105
 H         2.376715         1.933581        -0.467281
 H         3.686299         0.203719        -1.922767
 H         4.867955        -2.532067        -0.827657
 H         4.854093        -2.193904         0.910315
 H         2.574784        -3.329644        -0.444561
 H         2.603466        -2.423090         1.018844
 H         2.007549        -1.422772        -1.924853
