19
Iteration:  1584
 C         0.049541        -0.024466        -0.309970
 C         1.531410         0.044331        -0.113524
 O         2.148035         0.448418         1.097267
 C         2.539225         1.087854        -0.256706
 C         3.519840        -0.045208        -0.874370
 O         4.540304        -0.653226        -0.129531
 C         4.125960        -2.080924         0.114809
 C         2.588794        -2.309017        -0.016751
 C         2.373416        -1.000140        -0.864400
 H        -0.458585        -0.336921         0.616996
 H        -0.262799         1.006650        -0.625636
 H        -0.224131        -0.602994        -1.114346
 H         2.518037         2.211498        -0.393560
 H         3.764825         0.148068        -1.945833
 H         4.661357        -2.597576        -0.686999
 H         4.498733        -2.323263         1.186600
 H         2.480292        -3.344384        -0.474667
 H         2.014404        -2.350104         0.990192
 H         2.122088        -0.926380        -1.896666
