19
Iteration:  1583
 C         0.056174        -0.037535        -0.308440
 C         1.528206         0.050516        -0.114068
 O         2.147332         0.445176         1.099164
 C         2.544489         1.091887        -0.258164
 C         3.526008        -0.038862        -0.876327
 O         4.540709        -0.658189        -0.129868
 C         4.124382        -2.075691         0.114329
 C         2.583683        -2.308605        -0.012084
 C         2.377621        -0.997826        -0.856938
 H        -0.522833        -0.353524         0.598108
 H        -0.276626         0.990535        -0.615968
 H        -0.248458        -0.616627        -1.120173
 H         2.536508         2.212227        -0.448102
 H         3.785482         0.136363        -1.943237
 H         4.664784        -2.613622        -0.714592
 H         4.461282        -2.326513         1.161236
 H         2.463552        -3.317158        -0.521700
 H         2.021549        -2.309907         0.980284
 H         2.086242        -0.923427        -1.854413
