19
Iteration:  4953charge 0 multiplicity 1
 C        -0.132871         0.153474        -0.132548
 C         1.417558         0.050552        -0.331733
 O         2.128701         0.530624         0.800233
 C         2.533299         1.001823        -0.576252
 C         3.500384        -0.218798        -0.905339
 O         4.581765        -0.609264         0.048706
 C         4.286354        -2.047130         0.187408
 C         2.781821        -2.234970         0.294053
 C         2.258411        -1.147246        -0.795346
 H        -0.661756         0.431440        -1.090839
 H        -0.417051        -0.875418         0.064751
 H        -0.502563         0.864689         0.570975
 H         2.857049         1.992528        -0.811511
 H         4.009568        -0.049414        -1.913395
 H         4.685201        -2.630670        -0.700798
 H         4.867550        -2.291087         1.151138
 H         2.553052        -3.325809        -0.005280
 H         2.310631        -2.078641         1.244378
 H         2.053098        -1.788649        -1.696347
