19
Iteration:  1581
 C         0.066818        -0.058724        -0.301508
 C         1.519871         0.060448        -0.117517
 O         2.146424         0.440655         1.100804
 C         2.558765         1.099383        -0.259407
 C         3.539601        -0.025699        -0.879986
 O         4.541399        -0.669002        -0.129066
 C         4.123499        -2.065211         0.113810
 C         2.576402        -2.305889        -0.005436
 C         2.381414        -0.993572        -0.835925
 H        -0.637827        -0.380159         0.543469
 H        -0.311964         0.945007        -0.580062
 H        -0.298858        -0.681599        -1.165690
 H         2.570101         2.177284        -0.541257
 H         3.843907         0.127424        -1.928691
 H         4.660001        -2.649334        -0.740735
 H         4.395138        -2.333192         1.089753
 H         2.421597        -3.228491        -0.609530
 H         2.052512        -2.221423         0.932576
 H         1.972830        -0.953719        -1.823682
