19
Iteration:  4411
 C        -0.134171         0.264867        -0.280241
 C         1.396667         0.009817        -0.263303
 O         2.157184         0.459581         0.933225
 C         2.568184         0.924443        -0.332145
 C         3.412878        -0.208547        -1.039239
 O         4.561041        -0.674149        -0.244466
 C         4.356637        -1.883248         0.386444
 C         2.817531        -2.229951         0.186384
 C         2.273206        -1.229120        -0.795066
 H        -0.663590        -0.044236        -1.250915
 H        -0.648344        -0.305471         0.631735
 H        -0.347369         1.346830        -0.080685
 H         2.564546         2.018369        -0.305802
 H         3.822753         0.181249        -1.951566
 H         5.013156        -2.761262         0.073762
 H         4.491417        -1.782766         1.479475
 H         2.802872        -3.279622        -0.153349
 H         2.268818        -2.269340         1.106940
 H         1.779499        -1.776241        -1.654735
