19
Iteration:  4590charge 0 multiplicity 1
 C        -0.071576         0.299643        -0.419627
 C         1.366698         0.000263        -0.189879
 O         2.234692         0.381712         0.990024
 C         2.504500         0.881361        -0.359556
 C         3.404463        -0.211138        -0.915624
 O         4.554658        -0.579481        -0.238868
 C         4.326074        -1.933035         0.252122
 C         2.843597        -2.158698         0.254000
 C         2.193807        -1.288681        -0.722585
 H        -0.174858         0.281100        -1.561358
 H        -0.886126        -0.304848         0.045156
 H        -0.299254         1.402205        -0.049047
 H         2.577026         1.953694        -0.625228
 H         3.685314        -0.176094        -1.934027
 H         4.721205        -2.797909        -0.278895
 H         4.776309        -1.820112         1.282554
 H         2.702349        -3.171391        -0.052046
 H         2.505579        -1.892715         1.284174
 H         1.817283        -1.715429        -1.636059
