19
Iteration:  1578charge 0 multiplicity 1
 C         0.063041        -0.083903        -0.293218
 C         1.509732         0.066733        -0.125109
 O         2.146689         0.441251         1.097679
 C         2.584310         1.101226        -0.257677
 C         3.557089        -0.011353        -0.883520
 O         4.542561        -0.684416        -0.123829
 C         4.124225        -2.053651         0.100437
 C         2.578882        -2.291305        -0.011620
 C         2.371935        -0.986421        -0.805045
 H        -0.703550        -0.402163         0.445101
 H        -0.375282         0.885839        -0.520267
 H        -0.303698        -0.754314        -1.189353
 H         2.599122         2.107667        -0.610598
 H         3.945056         0.155293        -1.902395
 H         4.613540        -2.676816        -0.680054
 H         4.387446        -2.371523         1.090908
 H         2.343159        -3.087641        -0.695622
 H         2.072256        -2.117247         0.908193
 H         1.794502        -1.066629        -1.825027
