19
Iteration:   441charge 0 multiplicity 1
 C         0.010295         0.004674        -0.100109
 C         1.451830         0.157407        -0.336520
 O         2.111012         0.265110         0.988879
 C         2.637019         1.044308        -0.126128
 C         3.571899        -0.051008        -0.896467
 O         4.593205        -0.833361        -0.355784
 C         4.032115        -1.886863         0.482207
 C         2.677162        -2.211577        -0.127934
 C         2.346665        -0.931803        -0.964936
 H        -0.089881        -0.568954         0.766495
 H        -0.688844         0.791889         0.059278
 H        -0.383129        -0.594297        -0.835370
 H         2.895363         2.117712        -0.053789
 H         3.855730         0.375292        -1.884878
 H         4.695333        -2.657530         0.542801
 H         3.924339        -1.497428         1.531223
 H         2.658769        -3.028569        -0.779971
 H         1.892204        -2.399103         0.666389
 H         2.116605        -1.279856        -2.035457
