19
Iteration:  4022charge 0 multiplicity 1
 C        -0.060748         0.271574        -0.125633
 C         1.386826        -0.041932        -0.396798
 O         2.101661         0.351564         0.832966
 C         2.458026         0.933529        -0.337861
 C         3.452955        -0.118757        -0.980815
 O         4.622888        -0.641098        -0.167162
 C         4.336203        -1.905092         0.419303
 C         2.782370        -2.191291         0.204543
 C         2.296871        -1.255105        -0.865928
 H        -0.714649         0.343880        -1.049475
 H        -0.524740        -0.381853         0.579185
 H         0.077810         1.331307         0.131877
 H         2.489452         2.048601        -0.478904
 H         3.991313         0.206227        -1.902498
 H         4.883080        -2.776801        -0.109201
 H         4.599600        -1.820413         1.477709
 H         2.720317        -3.142131        -0.295180
 H         2.069400        -2.157722         1.004894
 H         1.849721        -1.665848        -1.742363
