19
Iteration:   428charge 0 multiplicity 1
 C        -0.070676        -0.010854        -0.250455
 C         1.494870         0.111343        -0.218181
 O         2.254814         0.258325         1.073058
 C         2.681013         0.947935        -0.116078
 C         3.537518        -0.043458        -0.953750
 O         4.624439        -0.749940        -0.310424
 C         4.043315        -1.844739         0.414825
 C         2.584598        -2.162897        -0.091699
 C         2.258794        -0.990240        -0.981136
 H        -0.272077        -0.432902         0.742688
 H        -0.576163         0.962955        -0.415151
 H        -0.301583        -0.700999        -1.013590
 H         2.606226         2.005738         0.030290
 H         3.996569         0.348556        -1.872934
 H         4.711601        -2.657811         0.317244
 H         3.937734        -1.535310         1.485555
 H         2.631986        -3.118411        -0.649221
 H         1.884953        -2.229311         0.778163
 H         1.832916        -1.193176        -1.974117
