19
Iteration:  3493charge 0 multiplicity 1
 C        -0.087271         0.356839        -0.224438
 C         1.440111        -0.031965        -0.295735
 O         2.020025         0.302259         1.005316
 C         2.645700         0.870695        -0.291298
 C         3.484555        -0.229658        -1.104436
 O         4.622786        -0.690231        -0.446533
 C         4.257985        -1.744515         0.500192
 C         2.807668        -2.183093         0.215329
 C         2.252815        -1.206814        -0.840086
 H        -0.663278         0.062448        -1.049773
 H        -0.495021        -0.310827         0.554136
 H        -0.119481         1.397576         0.048089
 H         2.627158         1.916925        -0.104059
 H         3.707171         0.080322        -2.110640
 H         4.885259        -2.600454         0.262489
 H         4.281606        -1.452931         1.585532
 H         2.587946        -3.246385        -0.023742
 H         2.317869        -2.063878         1.227594
 H         1.833305        -1.886138        -1.583830
