19
Iteration:  4840
 C        -0.117739         0.399496        -0.402971
 C         1.297038        -0.046690        -0.185445
 O         1.933872         0.340176         0.886212
 C         2.512026         0.891274        -0.326051
 C         3.463773        -0.176500        -0.921016
 O         4.728352        -0.664013        -0.372515
 C         4.339288        -2.035999         0.265211
 C         2.898712        -2.074494         0.418204
 C         2.331163        -1.248215        -0.695741
 H        -0.581825        -0.140508        -1.188874
 H        -0.676768         0.139332         0.374522
 H        -0.197539         1.476548        -0.644347
 H         2.731985         1.969710        -0.194907
 H         3.601306         0.045319        -2.022280
 H         4.472800        -2.866839        -0.450715
 H         5.057498        -2.044286         1.117221
 H         2.576055        -3.053762         0.549111
 H         2.585546        -1.479175         1.314160
 H         2.006484        -1.706595        -1.628241
