19
Iteration:  1801charge 0 multiplicity 1
 C        -0.017887         0.426981        -0.368843
 C         1.355120        -0.036148        -0.122157
 O         2.179654         0.309163         1.105143
 C         2.435968         0.895205        -0.182128
 C         3.428093        -0.048932        -0.865862
 O         4.475382        -0.627888        -0.040126
 C         4.398400        -1.950463         0.028591
 C         2.822404        -2.371437        -0.032405
 C         2.300106        -1.183529        -0.844485
 H        -0.968796         0.192136         0.252799
 H        -0.051399         1.608855        -0.453759
 H        -0.266981         0.200001        -1.419529
 H         2.314024         1.905453        -0.461394
 H         3.668717         0.138446        -1.906111
 H         4.906895        -2.550563        -0.737391
 H         4.895199        -2.149714         0.960899
 H         2.599083        -3.329513        -0.479801
 H         2.585862        -2.569766         1.009399
 H         2.031562        -1.458484        -1.862241
