19
Iteration:  4430
 C        -0.011647         0.343925        -0.205351
 C         1.395061        -0.038358        -0.331350
 O         2.010145         0.347453         0.880878
 C         2.565177         0.851193        -0.375030
 C         3.448393        -0.198909        -0.954362
 O         4.587183        -0.538087        -0.235458
 C         4.321889        -1.898520         0.362543
 C         2.795930        -2.250735         0.269048
 C         2.269516        -1.228214        -0.793726
 H        -0.583244        -0.083014        -1.009797
 H        -0.416264         0.179318         0.804898
 H        -0.075826         1.431354        -0.148468
 H         2.684418         1.921388        -0.621284
 H         3.648144        -0.171726        -2.053192
 H         4.850764        -2.463855        -0.409577
 H         4.787047        -2.063732         1.381862
 H         2.762010        -3.269009        -0.163747
 H         2.309916        -2.218926         1.296521
 H         1.923050        -1.505328        -1.792534
