19
Iteration:  1335charge 0 multiplicity 1
 C        -0.084994         0.380070        -0.235036
 C         1.403904         0.003193        -0.140072
 O         2.057306         0.613288         1.057358
 C         2.534106         0.972151        -0.271289
 C         3.467731        -0.180361        -0.819359
 O         4.451683        -0.624430         0.131976
 C         4.428569        -2.011170         0.014873
 C         2.915048        -2.538732        -0.304449
 C         2.228482        -1.219297        -0.799374
 H        -0.669039        -0.440923         0.275486
 H        -0.231138         1.393748         0.301417
 H        -0.647074         0.470199        -1.172749
 H         2.609539         2.033392        -0.497139
 H         4.003276        -0.056660        -1.788166
 H         5.187398        -2.228321        -0.721003
 H         4.811660        -2.565345         0.856833
 H         2.769520        -3.157534        -1.160113
 H         2.530175        -3.105616         0.567444
 H         1.634707        -1.355946        -1.737548
