19
Iteration:  1367charge 0 multiplicity 1
 C        -0.058249         0.268450        -0.367480
 C         1.447751        -0.022988        -0.097882
 O         2.067793         0.333041         1.077221
 C         2.528278         1.061562        -0.160043
 C         3.489738        -0.042352        -0.821889
 O         4.521281        -0.654214        -0.047181
 C         4.378944        -2.078067        -0.006806
 C         2.773273        -2.337021        -0.075785
 C         2.256949        -1.099782        -0.882133
 H        -0.634355        -0.178017         0.493038
 H        -0.253885         1.393392        -0.278847
 H        -0.227872        -0.208731        -1.321564
 H         2.589872         2.149162        -0.094187
 H         3.833930         0.242876        -1.824649
 H         4.896212        -2.528571        -0.870884
 H         4.701103        -2.443415         1.018517
 H         2.396681        -3.201617        -0.504125
 H         2.568416        -2.096274         0.984852
 H         1.765247        -1.319084        -1.849405
