19
Iteration:  4027
 C        -0.102295         0.268867        -0.141210
 C         1.389676        -0.015889        -0.394329
 O         2.107591         0.374458         0.844052
 C         2.494980         0.865632        -0.381668
 C         3.515745        -0.062740        -0.942883
 O         4.650161        -0.658544        -0.192805
 C         4.299620        -1.886695         0.414480
 C         2.765898        -2.224352         0.227236
 C         2.284802        -1.214263        -0.881515
 H        -0.728605         0.152109        -1.001837
 H        -0.542227        -0.338752         0.713420
 H        -0.148490         1.310209         0.242513
 H         2.340815         1.925918        -0.404175
 H         3.769886         0.303098        -1.956159
 H         4.825505        -2.747523         0.027256
 H         4.658531        -1.944843         1.499746
 H         2.764146        -3.174962        -0.366160
 H         2.060179        -2.257099         1.115422
 H         1.963094        -1.777849        -1.823905
