19
Iteration:  1112
 C        -0.011737         0.287270        -0.322278
 C         1.425420         0.051538        -0.160218
 O         2.035825         0.078345         1.077489
 C         2.692412         0.844688        -0.042338
 C         3.476044        -0.085535        -0.954170
 O         4.577987        -0.819582        -0.526630
 C         4.215589        -1.676484         0.466023
 C         2.765072        -2.184362         0.018406
 C         2.241655        -1.031778        -0.945683
 H        -0.640238        -0.618521        -0.069754
 H        -0.352363         0.993806         0.498593
 H        -0.312155         0.683967        -1.326655
 H         2.775677         1.928155         0.093616
 H         3.783507         0.332829        -1.915254
 H         5.029037        -2.401481         0.653336
 H         4.050805        -1.125840         1.493864
 H         2.859657        -3.104190        -0.543655
 H         2.176429        -2.353066         0.870195
 H         2.018056        -1.286298        -2.016854
