19
Iteration:  3503charge 0 multiplicity 1
 C        -0.017646         0.403998        -0.269145
 C         1.335633        -0.014819        -0.287923
 O         2.008411         0.288896         0.967602
 C         2.536853         0.857741        -0.261752
 C         3.416749        -0.206265        -1.011829
 O         4.621626        -0.719033        -0.426930
 C         4.302825        -1.814340         0.410766
 C         2.861848        -2.155540         0.280026
 C         2.285809        -1.238624        -0.788714
 H        -0.589875         0.311663        -1.158235
 H        -0.493093         0.010953         0.647952
 H        -0.033512         1.481209        -0.080781
 H         2.669695         1.886647        -0.505832
 H         3.551384         0.009059        -2.056328
 H         5.011811        -2.609043         0.198388
 H         4.627241        -1.458643         1.414632
 H         2.879018        -3.158307        -0.199851
 H         2.322813        -2.198093         1.274949
 H         2.167061        -1.717361        -1.775037
