19
Iteration:  2401
 C        -0.046281         0.337407        -0.640578
 C         1.370364         0.074044        -0.124006
 O         1.956763         0.382424         1.180461
 C         2.627507         0.882423        -0.087715
 C         3.441384        -0.083207        -0.866391
 O         4.644795        -0.740991        -0.373437
 C         4.319840        -2.038106        -0.025395
 C         2.790014        -2.209241         0.282927
 C         2.264149        -1.128778        -0.647908
 H        -0.222665         0.649631        -1.697112
 H        -0.544744        -0.627673        -0.651804
 H        -0.588222         0.871144         0.215417
 H         2.675766         1.942284        -0.091777
 H         3.612033         0.310292        -1.860971
 H         4.707642        -2.784808        -0.784964
 H         4.946757        -2.372817         0.822265
 H         2.532018        -3.259379         0.102062
 H         2.831789        -1.863218         1.312547
 H         2.079128        -1.471933        -1.682921
