19
Iteration:  1793charge 0 multiplicity 1
 C         0.010422         0.392217        -0.397064
 C         1.365607        -0.067609        -0.089792
 O         2.118479         0.310751         1.092420
 C         2.536063         0.881663        -0.164167
 C         3.420021        -0.079309        -0.896136
 O         4.459825        -0.566680        -0.037322
 C         4.361481        -1.995620        -0.004698
 C         2.871271        -2.329698        -0.026633
 C         2.237616        -1.200849        -0.807852
 H        -0.855317         0.144666         0.284384
 H         0.081748         1.496606        -0.503447
 H        -0.257857         0.156749        -1.437712
 H         2.531301         1.968857        -0.312036
 H         3.786489         0.333349        -1.860367
 H         4.808539        -2.380061        -0.925525
 H         4.859473        -2.423239         0.968118
 H         2.590364        -3.342405        -0.380085
 H         2.511589        -2.051553         1.014846
 H         1.919232        -1.353315        -1.799166
