19
Iteration:  3459
 C        -0.032653         0.026940        -0.207011
 C         1.532353         0.027820        -0.246664
 O         2.356044         0.402174         0.973536
 C         2.625717         0.983562        -0.312449
 C         3.454713        -0.179198        -1.072838
 O         4.517624        -0.854818        -0.468466
 C         3.979722        -1.647115         0.625885
 C         2.742509        -2.174798         0.092934
 C         2.253903        -1.113804        -0.793106
 H        -0.408938         0.028194        -1.219325
 H        -0.333738        -0.827002         0.408678
 H        -0.566472         0.848896         0.275459
 H         2.576169         2.062689        -0.248185
 H         3.717117         0.043917        -2.087774
 H         4.733347        -2.420607         0.820479
 H         3.900108        -1.061728         1.576098
 H         2.957855        -2.984223        -0.614714
 H         1.973344        -2.340506         0.916380
 H         1.672283        -1.521715        -1.684697
