19
Iteration:  4355
 C        -0.065774         0.095271        -0.270338
 C         1.451403         0.102652        -0.185777
 O         2.179554         0.535773         1.003262
 C         2.648161         0.967093        -0.346314
 C         3.389384        -0.221534        -0.987249
 O         4.568017        -0.805343        -0.477845
 C         4.186251        -1.750021         0.622791
 C         2.780160        -2.315166         0.074290
 C         2.278972        -1.177319        -0.825931
 H        -0.381023         0.343494        -1.312919
 H        -0.400396        -1.039644        -0.036575
 H        -0.600064         0.685247         0.531643
 H         2.681149         2.076214        -0.336009
 H         3.679805         0.195989        -1.943669
 H         5.007511        -2.494134         0.860492
 H         3.916680        -1.135468         1.510679
 H         3.070674        -3.178342        -0.475589
 H         2.087291        -2.463920         0.912453
 H         1.822945        -1.417017        -1.828187
