19
Iteration:  2973charge 0 multiplicity 1
 C        -0.091794         0.299480        -0.347461
 C         1.386251         0.057286        -0.170539
 O         2.121027         0.234601         1.017983
 C         2.761097         0.839868        -0.120298
 C         3.439159        -0.185754        -1.058860
 O         4.634712        -0.811197        -0.635086
 C         4.222012        -1.744153         0.494627
 C         2.742715        -2.091132         0.261456
 C         2.162119        -1.144933        -0.812383
 H        -0.468290        -0.660809        -0.504298
 H        -0.567322         0.700456         0.555142
 H        -0.321916         1.020833        -1.110495
 H         2.947968         1.896435        -0.091819
 H         3.688548         0.099449        -2.072941
 H         4.883161        -2.603556         0.650337
 H         4.456173        -1.100719         1.329289
 H         2.644521        -3.168158        -0.066642
 H         2.216456        -2.084386         1.224421
 H         1.835648        -1.582156        -1.735388
