19
Iteration:  4429
 C        -0.017593         0.339988        -0.207889
 C         1.392907        -0.042477        -0.330490
 O         2.012402         0.350499         0.883966
 C         2.568738         0.853658        -0.371925
 C         3.458419        -0.194765        -0.953983
 O         4.581648        -0.540934        -0.239506
 C         4.324097        -1.902254         0.369875
 C         2.797581        -2.251442         0.270629
 C         2.260122        -1.225026        -0.797878
 H        -0.596519        -0.075103        -0.992572
 H        -0.392435         0.170559         0.764597
 H        -0.062970         1.421795        -0.136680
 H         2.708952         1.914024        -0.631750
 H         3.638561        -0.178660        -2.063923
 H         4.834871        -2.457492        -0.391633
 H         4.837879        -2.024072         1.375146
 H         2.760687        -3.238038        -0.216182
 H         2.284587        -2.228786         1.300462
 H         1.929004        -1.518754        -1.785808
