19
Iteration:  1533charge 0 multiplicity 1
 C        -0.045277         0.166661        -0.175727
 C         1.441884         0.060246        -0.307723
 O         2.013253         0.412891         0.932545
 C         2.622483         0.973271        -0.194499
 C         3.584033        -0.053819        -0.857471
 O         4.515651        -0.661356        -0.015777
 C         4.281912        -2.099915         0.059879
 C         2.705427        -2.231737         0.004657
 C         2.311570        -1.105367        -0.873525
 H        -0.260718        -0.690587         0.513972
 H        -0.375345         1.099436         0.354663
 H        -0.735914         0.032116        -1.073477
 H         2.592243         2.049485        -0.155631
 H         3.933820         0.380702        -1.814041
 H         4.812681        -2.563674        -0.791584
 H         4.658571        -2.400863         1.070790
 H         2.492538        -3.179495        -0.481244
 H         2.429586        -2.162980         1.064059
 H         2.026000        -1.426383        -1.942425
