19
Iteration:  3319
 C        -0.144892         0.133920        -0.258417
 C         1.479548         0.131851        -0.197740
 O         2.086702         0.448393         1.012148
 C         2.640773         0.969766        -0.265827
 C         3.472704        -0.172779        -0.974063
 O         4.714139        -0.778383        -0.447707
 C         4.198556        -1.865212         0.408727
 C         2.692908        -2.278882         0.182437
 C         2.270222        -1.124122        -0.852187
 H        -0.370721        -0.436946        -1.126207
 H        -0.441419        -0.235095         0.777727
 H        -0.516797         1.182119        -0.325917
 H         2.718910         2.066584        -0.240428
 H         3.682317         0.304902        -1.950601
 H         4.806452        -2.732843         0.112427
 H         4.332447        -1.833402         1.534793
 H         2.663716        -3.264403        -0.374773
 H         2.078477        -2.232859         1.132742
 H         1.785543        -1.401495        -1.817613
