19
Iteration:   442
 C         0.011652         0.002261        -0.087926
 C         1.457289         0.155686        -0.338894
 O         2.099479         0.271199         0.978964
 C         2.638099         1.046584        -0.121933
 C         3.577214        -0.043927        -0.892635
 O         4.590633        -0.837397        -0.358711
 C         4.030961        -1.884337         0.494268
 C         2.679739        -2.216923        -0.137070
 C         2.345413        -0.934043        -0.968572
 H        -0.101819        -0.578583         0.773752
 H        -0.654594         0.808125         0.088160
 H        -0.417289        -0.585672        -0.851303
 H         2.911594         2.127822        -0.062223
 H         3.834167         0.361981        -1.898221
 H         4.699907        -2.700153         0.559594
 H         3.952139        -1.508945         1.540736
 H         2.676463        -3.023915        -0.794473
 H         1.920148        -2.403643         0.676273
 H         2.120239        -1.272384        -2.055808
