19
Iteration:  2168charge 0 multiplicity 1
 C        -0.078396         0.264566        -0.171596
 C         1.440327        -0.005233        -0.245287
 O         2.029876         0.230437         1.040235
 C         2.581214         0.885550        -0.147984
 C         3.546851        -0.030529        -0.934612
 O         4.579919        -0.680292        -0.258524
 C         4.209957        -1.902538         0.366359
 C         2.803577        -2.263864        -0.132458
 C         2.329165        -1.103567        -0.946318
 H        -0.384474        -0.165199         0.787374
 H        -0.237064         1.381822        -0.003270
 H        -0.703203         0.028060        -1.020085
 H         2.470559         1.978614        -0.183866
 H         3.905666         0.472817        -1.831022
 H         5.100982        -2.592029         0.055295
 H         4.237951        -1.736044         1.471318
 H         2.663619        -3.206786        -0.709064
 H         2.158492        -2.117300         0.699640
 H         1.903125        -1.318651        -1.956426
