19
Iteration:  1444charge 0 multiplicity 1
 C        -0.083599         0.253677        -0.547388
 C         1.348631        -0.000832        -0.068392
 O         1.929468         0.435158         1.202305
 C         2.519421         0.949527        -0.003127
 C         3.473965        -0.040202        -0.769086
 O         4.653161        -0.726320        -0.362862
 C         4.386965        -2.104304         0.008899
 C         2.845351        -2.250345         0.035150
 C         2.329248        -1.118178        -0.797497
 H        -0.851284        -0.520602        -0.360352
 H        -0.189969         1.223973         0.073831
 H        -0.007703         0.703239        -1.556491
 H         2.444886         2.061991        -0.060846
 H         3.733288         0.460591        -1.722636
 H         4.789511        -2.706530        -0.868165
 H         4.780336        -2.461740         1.043291
 H         2.531464        -3.256105        -0.199393
 H         2.407750        -2.118223         1.080372
 H         2.060083        -1.332810        -1.875691
