19
Iteration:  2405
 C        -0.052740         0.377109        -0.671128
 C         1.350239         0.054227        -0.121661
 O         1.990294         0.366973         1.180538
 C         2.621844         0.868071        -0.064671
 C         3.411626        -0.125470        -0.884681
 O         4.620153        -0.718862        -0.360166
 C         4.319260        -2.013159        -0.016248
 C         2.846976        -2.211817         0.285552
 C         2.256100        -1.145059        -0.669194
 H        -0.186666         0.833355        -1.627953
 H        -0.625197        -0.556595        -0.640428
 H        -0.478052         0.795054         0.218924
 H         2.752031         1.992286        -0.077266
 H         3.565394         0.258375        -1.927746
 H         4.748563        -2.818114        -0.685116
 H         4.922761        -2.330027         0.869938
 H         2.458640        -3.185437         0.062082
 H         2.833115        -1.853824         1.358495
 H         2.060733        -1.482424        -1.687260
