19
Iteration:  3790charge 0 multiplicity 1
 C        -0.069716         0.110069        -0.214229
 C         1.405628        -0.003646        -0.198068
 O         2.272965         0.354471         0.888331
 C         2.582567         1.038363        -0.269002
 C         3.478498        -0.165275        -0.993098
 O         4.598125        -0.721844        -0.303302
 C         4.197479        -1.783264         0.498194
 C         2.657687        -2.225217         0.077707
 C         2.224081        -1.140859        -0.856022
 H        -0.464364         0.307231        -1.239224
 H        -0.540876        -0.924130        -0.000175
 H        -0.406321         0.909864         0.473090
 H         2.637363         2.089295        -0.417971
 H         3.754307         0.077139        -2.018124
 H         4.964878        -2.579779         0.374577
 H         4.238753        -1.337380         1.487069
 H         2.994534        -3.172819        -0.396220
 H         2.042506        -2.319504         0.958211
 H         1.994964        -1.464533        -1.856289
