19
Iteration:  3151charge 0 multiplicity 1
 C         0.014952        -0.072160         0.004559
 C         1.530845         0.040595        -0.219367
 O         2.393364         0.496928         0.901995
 C         2.635011         0.961338        -0.477364
 C         3.513361        -0.228442        -1.122113
 O         4.571474        -0.773918        -0.247979
 C         3.913383        -1.710238         0.636820
 C         2.566774        -2.174779        -0.009816
 C         2.268198        -1.068398        -0.906124
 H        -0.443818        -0.640548        -0.821347
 H        -0.097579        -0.465208         0.956330
 H        -0.458775         0.887195        -0.116368
 H         2.382549         2.030075        -0.647239
 H         3.956506        -0.091656        -2.100291
 H         4.704322        -2.486432         0.532310
 H         3.673100        -1.419398         1.667096
 H         2.678100        -3.180525        -0.531102
 H         1.933038        -2.218799         0.883881
 H         1.801802        -1.283836        -1.898383
