19
Iteration:  4860charge 0 multiplicity 1
 C        -0.062270         0.323151        -0.485957
 C         1.413273        -0.023036        -0.307764
 O         1.968510         0.496623         1.012499
 C         2.529970         0.885730        -0.228334
 C         3.407716        -0.254698        -0.947069
 O         4.572726        -0.678412        -0.317108
 C         4.454982        -1.997468         0.150724
 C         2.861418        -2.122679         0.445403
 C         2.268832        -1.242031        -0.683656
 H        -0.645917        -0.099952        -1.253166
 H        -0.614891         0.079668         0.435783
 H        -0.214984         1.424756        -0.617897
 H         2.450027         1.887951        -0.616127
 H         3.723402         0.035667        -1.958619
 H         4.877546        -2.703566        -0.644544
 H         4.895428        -2.223106         1.110906
 H         2.481759        -3.130189         0.470787
 H         2.787635        -1.800908         1.519401
 H         1.972651        -1.718273        -1.616334
