19
Iteration:  3829
 C        -0.108258         0.282945        -0.308086
 C         1.385694         0.004563        -0.156835
 O         1.984222         0.578059         0.991036
 C         2.589355         0.908125        -0.273226
 C         3.395233        -0.218374        -0.917725
 O         4.664996        -0.674973        -0.280507
 C         4.402043        -1.900800         0.305727
 C         2.876179        -2.361710         0.111256
 C         2.240695        -1.248274        -0.816857
 H        -0.292453         0.413820        -1.360909
 H        -0.825912        -0.358125         0.193467
 H        -0.238998         1.336204        -0.041271
 H         2.409498         2.035984        -0.378222
 H         3.741899         0.002343        -1.977488
 H         4.927330        -2.762218        -0.261450
 H         4.619898        -1.866074         1.418263
 H         2.694380        -3.327139        -0.339254
 H         2.334031        -2.361883         1.126947
 H         1.736922        -1.486784        -1.801000
