19
Iteration:  1508charge 0 multiplicity 1
 C        -0.065927         0.406091        -0.258484
 C         1.397658        -0.026542        -0.198255
 O         2.124843         0.281088         1.023900
 C         2.485922         0.907996        -0.295705
 C         3.486953        -0.112736        -0.852130
 O         4.524144        -0.586411         0.038356
 C         4.347136        -2.004899         0.044357
 C         2.746188        -2.294798        -0.005057
 C         2.323755        -1.213596        -0.899488
 H        -0.863300        -0.235008         0.032171
 H        -0.164887         1.293439         0.436224
 H        -0.312060         0.765344        -1.215289
 H         2.323145         2.009649        -0.359025
 H         3.837613         0.292834        -1.816452
 H         4.759082        -2.319320        -0.883187
 H         4.989844        -2.355762         0.933867
 H         2.559149        -3.286497        -0.400619
 H         2.557717        -2.030781         1.063788
 H         2.130046        -1.523755        -1.921609
