19
Iteration:  4600
 C        -0.084630         0.287854        -0.416268
 C         1.358978        -0.056100        -0.157194
 O         2.195301         0.450228         0.978229
 C         2.571796         0.858917        -0.325226
 C         3.409894        -0.166413        -0.996960
 O         4.535599        -0.627823        -0.300496
 C         4.338474        -1.872005         0.337941
 C         2.813917        -2.327713         0.292994
 C         2.232121        -1.151499        -0.764426
 H        -0.285186         0.113242        -1.518955
 H        -0.802622        -0.267864         0.229073
 H        -0.108883         1.424702        -0.171920
 H         2.630036         1.956909        -0.483991
 H         3.610489         0.055496        -2.035204
 H         5.032933        -2.499013        -0.212264
 H         4.673135        -1.902693         1.398013
 H         2.556227        -3.294120        -0.075585
 H         2.360975        -2.296851         1.283318
 H         1.815824        -1.652846        -1.629878
