19
Iteration:  3299
 C        -0.028716         0.139412        -0.340241
 C         1.470414         0.063951        -0.231746
 O         1.962481         0.439269         1.008392
 C         2.648719         0.952602        -0.107589
 C         3.504795        -0.184481        -0.920265
 O         4.603485        -0.880426        -0.590055
 C         4.268559        -1.875142         0.384303
 C         2.737448        -2.121400         0.212052
 C         2.265936        -1.078485        -0.789746
 H        -0.387578        -0.365134        -1.246317
 H        -0.380664        -0.497078         0.563211
 H        -0.300888         1.186678        -0.052845
 H         2.742519         2.043435        -0.052672
 H         3.661838         0.213091        -1.970963
 H         4.976413        -2.688202         0.271945
 H         4.568940        -1.460899         1.360839
 H         2.237400        -2.985107        -0.223580
 H         2.250492        -1.846330         1.137344
 H         2.032259        -1.633740        -1.697936
