19
Iteration:  2873
 C         0.034605         0.165874         0.040914
 C         1.479649        -0.069676        -0.191017
 O         2.265303         0.530570         0.896815
 C         2.600735         0.879563        -0.426065
 C         3.486852        -0.217729        -1.003128
 O         4.542919        -0.627886        -0.192955
 C         3.967639        -1.856459         0.558694
 C         2.728949        -2.354746        -0.158343
 C         2.288751        -1.123018        -0.973367
 H        -0.061012         0.473511         1.032643
 H        -0.299785         1.001849        -0.663604
 H        -0.621155        -0.669026        -0.129502
 H         2.636759         2.014078        -0.503647
 H         3.822207        -0.000032        -2.035595
 H         4.883714        -2.426410         0.557676
 H         3.730678        -1.460249         1.579871
 H         2.944411        -3.232430        -0.784722
 H         2.020410        -2.412502         0.728259
 H         1.835315        -1.147869        -1.945757
