19
Iteration:  4181charge 0 multiplicity 1
 C         0.021029         0.232681        -0.299774
 C         1.467691        -0.044574        -0.195847
 O         2.220782         0.312733         0.963207
 C         2.625020         0.941916        -0.312711
 C         3.410516        -0.107237        -1.050523
 O         4.540685        -0.683374        -0.359543
 C         4.168556        -1.665531         0.546875
 C         2.775174        -2.264805         0.158964
 C         2.173151        -1.280556        -0.832015
 H        -0.366028         0.310525        -1.313611
 H        -0.517155        -0.623310         0.143012
 H        -0.258119         1.158731         0.195853
 H         2.653009         2.017263        -0.511731
 H         3.663485         0.099642        -2.091246
 H         4.929180        -2.454795         0.393948
 H         4.061526        -1.338349         1.607596
 H         2.800598        -3.313721        -0.280146
 H         2.226172        -2.313469         1.106585
 H         1.798056        -1.687482        -1.817523
