19
Iteration:  2974
 C        -0.095890         0.298208        -0.349832
 C         1.391643         0.062582        -0.171140
 O         2.117084         0.226447         1.026036
 C         2.764571         0.844228        -0.121410
 C         3.439005        -0.189844        -1.067005
 O         4.637541        -0.811449        -0.634517
 C         4.217268        -1.744926         0.503383
 C         2.746107        -2.076580         0.262407
 C         2.158537        -1.145011        -0.822621
 H        -0.497165        -0.686393        -0.496856
 H        -0.531565         0.672219         0.562433
 H        -0.339283         1.034909        -1.110816
 H         2.986990         1.880462        -0.084143
 H         3.676187         0.097260        -2.074004
 H         4.904271        -2.597201         0.642786
 H         4.454405        -1.108746         1.309116
 H         2.624490        -3.174006        -0.033316
 H         2.247712        -2.098708         1.234681
 H         1.810401        -1.583399        -1.757086
