19
Iteration:  4105
 C        -0.032695         0.192751        -0.291318
 C         1.396931        -0.004775        -0.126371
 O         2.129310         0.493315         1.005772
 C         2.576691         0.889805        -0.309866
 C         3.478327        -0.227860        -1.003704
 O         4.624353        -0.787003        -0.440393
 C         4.172194        -1.679017         0.584716
 C         2.882351        -2.277956         0.049849
 C         2.207472        -1.199933        -0.822765
 H        -0.300656         0.121228        -1.368798
 H        -0.659303        -0.527880         0.291841
 H        -0.432496         1.161174         0.043167
 H         2.654932         1.970428        -0.551693
 H         3.779152         0.239531        -1.956210
 H         4.870130        -2.543607         0.772128
 H         3.982966        -1.097974         1.546232
 H         3.120865        -3.192739        -0.616327
 H         2.134553        -2.669578         0.777170
 H         1.486231        -1.410478        -1.678410
