19
Iteration:  1147
 C         0.085163         0.587186        -0.543868
 C         1.334797        -0.077066        -0.063172
 O         2.027969         0.168587         1.208915
 C         2.634350         0.757576         0.025902
 C         3.331837        -0.161698        -0.914382
 O         4.512907        -0.671743        -0.595702
 C         4.266127        -1.661502         0.416297
 C         2.967155        -2.409959        -0.040828
 C         2.215519        -1.207311        -0.804412
 H        -0.848103        -0.087998        -0.605069
 H        -0.016543         1.341592         0.211348
 H         0.258721         1.145367        -1.501366
 H         2.588711         1.878737         0.036850
 H         3.421930         0.356566        -1.880021
 H         5.165912        -2.246718         0.597005
 H         4.075545        -1.043181         1.336066
 H         3.277785        -3.143578        -0.706819
 H         2.398700        -2.896154         0.816234
 H         1.860143        -1.528809        -1.744813
