19
Iteration:  1127
 C        -0.036612         0.471642        -0.406238
 C         1.417862        -0.036333        -0.124393
 O         2.066149         0.079244         1.179452
 C         2.564610         0.826898        -0.006943
 C         3.434736        -0.151378        -0.981599
 O         4.725086        -0.772937        -0.603210
 C         4.164611        -1.636380         0.512064
 C         2.877117        -2.208100        -0.034410
 C         2.182920        -1.151806        -0.874316
 H        -0.725536        -0.402593        -0.498728
 H        -0.456239         1.218335         0.216328
 H         0.049494         0.881997        -1.420771
 H         2.719851         1.904310         0.190946
 H         3.501336         0.397924        -1.935979
 H         4.854668        -2.459328         0.688282
 H         4.151412        -1.140470         1.446960
 H         3.084054        -3.001340        -0.774198
 H         2.138454        -2.502852         0.826377
 H         1.628423        -1.519396        -1.695761
