19
Iteration:   404charge 0 multiplicity 1
 C         0.006961         0.204238        -0.379954
 C         1.467431        -0.050668        -0.028712
 O         2.290986         0.225007         1.082981
 C         2.645554         0.926550        -0.148724
 C         3.376395        -0.068409        -0.977090
 O         4.496537        -0.611334        -0.292648
 C         4.104652        -1.878731         0.368109
 C         2.697837        -2.241167        -0.061212
 C         2.279289        -1.054471        -0.910388
 H        -0.754952         0.137972         0.498042
 H         0.027197         1.187827        -0.908855
 H        -0.165314        -0.607768        -1.170080
 H         2.839370         1.968658         0.061873
 H         3.757641         0.282443        -1.939726
 H         4.937144        -2.618437         0.102869
 H         4.120769        -1.716782         1.437504
 H         2.749233        -3.224580        -0.704418
 H         1.976274        -2.320681         0.738573
 H         1.840692        -1.287834        -1.823648
