19
Iteration:  1022
 C        -0.002503         0.186484        -0.002845
 C         1.494384        -0.004400        -0.052388
 O         2.234130         0.687089         0.958746
 C         2.591113         0.950884        -0.440654
 C         3.483286        -0.185913        -0.921839
 O         4.306388        -0.597644         0.139415
 C         4.176444        -2.063294         0.254074
 C         2.877729        -2.455831        -0.466181
 C         2.245990        -1.124556        -0.849837
 H        -0.401764        -0.278248         0.933073
 H        -0.136295         1.318630         0.076559
 H        -0.513714        -0.259257        -0.896386
 H         2.630602         2.000416        -0.716543
 H         3.961836        -0.034184        -1.909219
 H         5.100552        -2.527397        -0.205458
 H         4.108457        -2.295663         1.375494
 H         3.006106        -3.054841        -1.407903
 H         2.278465        -3.083857         0.140625
 H         1.778931        -1.174093        -1.912675
