19
Iteration:  1802
 C        -0.028780         0.438500        -0.369659
 C         1.362170        -0.037401        -0.126866
 O         2.184535         0.310884         1.104603
 C         2.425897         0.898151        -0.185213
 C         3.427311        -0.053449        -0.858969
 O         4.478082        -0.626184        -0.043592
 C         4.399336        -1.955676         0.027080
 C         2.818754        -2.375044        -0.030434
 C         2.306507        -1.175768        -0.852066
 H        -0.973545         0.168955         0.267976
 H        -0.059112         1.623593        -0.413915
 H        -0.265902         0.168413        -1.412404
 H         2.282708         1.912760        -0.451705
 H         3.669761         0.111506        -1.901399
 H         4.932281        -2.555672        -0.697894
 H         4.921257        -2.141665         1.005750
 H         2.615966        -3.336682        -0.508416
 H         2.563745        -2.632439         1.011649
 H         2.037810        -1.477283        -1.827880
