19
Iteration:  3034
 C        -0.045900         0.396681        -0.274741
 C         1.424687         0.055439        -0.092396
 O         2.211196         0.462705         1.046200
 C         2.558248         0.861315        -0.274529
 C         3.442726        -0.236115        -1.051661
 O         4.554466        -0.814296        -0.469912
 C         4.211873        -1.749954         0.540338
 C         2.816751        -2.361032         0.020185
 C         2.216325        -1.208744        -0.767533
 H        -0.535513        -0.526794        -0.716709
 H        -0.558457         0.665220         0.724462
 H        -0.312568         1.153126        -1.050994
 H         2.646395         1.951408        -0.526314
 H         3.533425         0.043619        -2.145145
 H         5.067889        -2.427823         0.540238
 H         4.017100        -1.243225         1.549529
 H         3.095419        -3.127379        -0.684369
 H         2.310172        -2.770802         0.924611
 H         1.856016        -1.517621        -1.757227
