19
Iteration:  3476
 C        -0.047057         0.144754        -0.189080
 C         1.391213         0.056252        -0.198270
 O         2.209715         0.320967         0.950408
 C         2.686217         0.874890        -0.286153
 C         3.448942        -0.196859        -1.032725
 O         4.635451        -0.744975        -0.456263
 C         4.173266        -1.673791         0.568354
 C         2.670701        -2.176383         0.183150
 C         2.210556        -1.184395        -0.926935
 H        -0.433138         0.013812        -1.257535
 H        -0.494935        -0.594048         0.505862
 H        -0.426311         1.149363         0.110267
 H         2.977330         1.941273        -0.460651
 H         3.665845         0.145045        -2.089170
 H         4.968909        -2.444486         0.681800
 H         4.172554        -1.081702         1.471076
 H         2.725907        -3.231350        -0.106726
 H         1.990082        -2.166074         1.025576
 H         1.794480        -1.417811        -1.941100
