19
Iteration:  3144
 C         0.026434        -0.079967         0.014062
 C         1.489597         0.033867        -0.215347
 O         2.417567         0.517650         0.865989
 C         2.601865         1.018888        -0.457253
 C         3.577764        -0.278979        -1.083297
 O         4.470581        -0.734055        -0.216272
 C         3.951672        -1.780531         0.607458
 C         2.598585        -2.171749        -0.019149
 C         2.290676        -1.052769        -0.949726
 H        -0.498651        -0.813068        -0.604937
 H        -0.088826        -0.481111         1.101316
 H        -0.448460         0.899550        -0.193637
 H         2.685755         2.077367        -0.710096
 H         3.848777        -0.202626        -2.147164
 H         4.596612        -2.646772         0.607705
 H         3.798046        -1.277145         1.557845
 H         2.661961        -3.178366        -0.303044
 H         1.803297        -2.324467         0.742778
 H         1.867127        -1.179271        -1.940314
