19
Iteration:   895charge 0 multiplicity 1
 C        -0.099372         0.266889        -0.309530
 C         1.422347         0.064011        -0.258268
 O         1.983000         0.193919         1.027327
 C         2.692227         0.927324         0.070600
 C         3.513495        -0.077013        -0.842008
 O         4.615100        -0.868938        -0.606625
 C         4.289292        -1.778982         0.393037
 C         2.747525        -2.167922         0.063014
 C         2.270017        -1.094905        -0.932907
 H        -0.497149        -0.719191        -0.086264
 H        -0.357276         0.935146         0.549035
 H        -0.554856         0.649141        -1.202856
 H         2.853305         1.967955         0.321672
 H         3.756620         0.422858        -1.796950
 H         5.074787        -2.659605         0.396020
 H         4.352446        -1.335768         1.380299
 H         2.588434        -3.209370        -0.315577
 H         2.140882        -1.916167         0.988120
 H         1.910298        -1.351056        -1.909981
