19
Iteration:   103charge 0 multiplicity 1
 C         0.029539         0.184092        -0.375534
 C         1.450619         0.018075        -0.151256
 O         2.045065         0.069271         1.088750
 C         2.643057         0.931823         0.028142
 C         3.460729        -0.050719        -0.922169
 O         4.634164        -0.765196        -0.446263
 C         4.175721        -1.770507         0.407730
 C         2.711591        -2.098524        -0.040510
 C         2.259866        -1.000373        -0.952847
 H        -0.350554         1.247820        -0.131574
 H        -0.202071         0.033164        -1.483484
 H        -0.531650        -0.586820         0.263351
 H         2.914692         1.967694         0.313363
 H         3.753014         0.439327        -1.851638
 H         4.802367        -2.602989         0.183996
 H         4.279871        -1.530779         1.512437
 H         2.767018        -3.094876        -0.623804
 H         1.949351        -2.364284         0.842845
 H         1.841817        -1.279784        -1.953833
