19
Iteration:  2540charge 0 multiplicity 1
 C         0.011706        -0.059023        -0.050352
 C         1.543971         0.062524        -0.181140
 O         2.309562         0.472795         0.936606
 C         2.687138         1.014590        -0.294616
 C         3.561055        -0.124298        -0.977955
 O         4.543778        -0.786065        -0.288598
 C         3.865415        -1.787669         0.605950
 C         2.653525        -2.291442        -0.206887
 C         2.217702        -1.018591        -0.944952
 H        -0.486527        -0.489594        -0.898043
 H        -0.264007        -0.743277         0.744021
 H        -0.488269         0.879317         0.201567
 H         2.800248         2.100868        -0.329869
 H         3.920380         0.195378        -1.985542
 H         4.614668        -2.570319         0.595245
 H         3.810662        -1.487222         1.644693
 H         3.199401        -3.001283        -0.909494
 H         1.917356        -2.806632         0.374057
 H         1.707564        -0.944536        -1.934166
