19
Iteration:   106charge 0 multiplicity 1
 C         0.024011         0.181664        -0.345672
 C         1.453176         0.059154        -0.183420
 O         2.008229         0.055627         1.092968
 C         2.672343         0.922484         0.019268
 C         3.465611        -0.050357        -0.924427
 O         4.619946        -0.762847        -0.441616
 C         4.170243        -1.765517         0.407813
 C         2.714552        -2.106204        -0.022779
 C         2.289425        -1.003512        -0.966546
 H        -0.358473         1.153309        -0.085344
 H        -0.234660         0.015931        -1.419799
 H        -0.441629        -0.590237         0.318912
 H         2.899464         1.934372         0.272794
 H         3.761192         0.391372        -1.898260
 H         4.810918        -2.676599         0.188689
 H         4.264623        -1.477701         1.448651
 H         2.744250        -3.073801        -0.667698
 H         1.989600        -2.343794         0.836319
 H         1.905002        -1.209238        -1.952288
