19
Iteration:  1744charge 0 multiplicity 1
 C        -0.117746         0.119420        -0.402985
 C         1.374709         0.021439        -0.217834
 O         1.912278         0.445589         1.089050
 C         2.534262         1.046528        -0.048104
 C         3.561180        -0.025735        -0.739301
 O         4.723649        -0.769990        -0.187603
 C         4.300133        -2.215116        -0.150388
 C         2.767469        -2.136580         0.191355
 C         2.366652        -1.024678        -0.832186
 H        -0.707362        -0.756565         0.037147
 H        -0.535158         1.088437         0.107053
 H        -0.427072         0.191012        -1.534872
 H         2.682007         2.169647        -0.123012
 H         3.788696         0.201230        -1.797379
 H         4.533104        -2.707814        -1.113427
 H         4.826716        -2.569350         0.646661
 H         2.189937        -2.971663        -0.229419
 H         2.750316        -1.833787         1.213889
 H         2.148235        -1.372900        -1.945769
