19
Iteration:  3499
 C        -0.027067         0.384488        -0.248631
 C         1.348937        -0.023560        -0.294653
 O         2.005695         0.290010         0.993256
 C         2.585029         0.862545        -0.270221
 C         3.451216        -0.216866        -1.061301
 O         4.622017        -0.711654        -0.427750
 C         4.269118        -1.784610         0.443146
 C         2.852996        -2.154599         0.254017
 C         2.272072        -1.223923        -0.800809
 H        -0.695050         0.228321        -1.187283
 H        -0.445087        -0.119902         0.642053
 H        -0.057357         1.485288        -0.028379
 H         2.663452         1.995725        -0.383019
 H         3.602607         0.029897        -2.154195
 H         4.966098        -2.621662         0.212961
 H         4.495875        -1.471382         1.455676
 H         2.734743        -3.175317        -0.115207
 H         2.394150        -2.202509         1.239358
 H         2.129803        -1.860151        -1.721918
