19
Iteration:  3649charge 0 multiplicity 1
 C        -0.051503         0.234298        -0.285375
 C         1.409875         0.032435        -0.154440
 O         2.115962         0.490246         0.939171
 C         2.547391         0.939249        -0.406809
 C         3.493432        -0.161081        -0.937013
 O         4.525882        -0.549266        -0.030545
 C         4.308779        -2.078309         0.105267
 C         2.796831        -2.254182         0.128243
 C         2.256269        -1.232642        -0.729709
 H        -0.416926        -0.049990        -1.267126
 H        -0.574692        -0.427679         0.390203
 H        -0.283088         1.258520        -0.049317
 H         2.477372         2.039904        -0.606971
 H         3.826903        -0.061475        -1.960734
 H         4.777783        -2.635261        -0.727157
 H         4.631402        -2.385770         1.103102
 H         2.654473        -3.327040        -0.167236
 H         2.441050        -1.992972         1.109218
 H         1.926081        -1.552017        -1.719075
