19
Iteration:  2810charge 0 multiplicity 1
 C         0.019302         0.032705        -0.043910
 C         1.515000         0.061655        -0.189165
 O         2.270040         0.499180         0.995696
 C         2.632766         0.945317        -0.314068
 C         3.605450        -0.160186        -1.002568
 O         4.600473        -0.756284        -0.357604
 C         3.887852        -1.715333         0.554424
 C         2.640198        -2.351416        -0.105408
 C         2.227840        -1.064561        -0.974171
 H        -0.474833         0.991754        -0.016603
 H        -0.364802        -0.779085        -0.807943
 H        -0.157665        -0.434788         0.963480
 H         2.807596         2.061856        -0.470036
 H         3.983384         0.100641        -1.978828
 H         4.576787        -2.557335         0.707950
 H         3.628965        -1.275896         1.503656
 H         2.884439        -3.286507        -0.712475
 H         2.001106        -2.781461         0.691519
 H         1.718140        -1.227121        -1.923961
