19
Iteration:  2999
 C         0.017847         0.300859        -0.239878
 C         1.431382         0.065614        -0.271575
 O         2.057029         0.212753         1.059885
 C         2.729698         0.794966        -0.140147
 C         3.458122        -0.203704        -1.070328
 O         4.585473        -0.861327        -0.630537
 C         4.208472        -1.628673         0.502088
 C         2.687181        -2.060143         0.240675
 C         2.232143        -1.146501        -0.846365
 H        -0.361347        -0.723628        -0.613352
 H        -0.412350         0.455750         0.734950
 H        -0.275444         1.146223        -0.909990
 H         2.851634         1.886200        -0.045866
 H         3.786998         0.123584        -2.052275
 H         4.813813        -2.541681         0.622438
 H         4.480663        -0.989092         1.324196
 H         2.639675        -3.130644        -0.056831
 H         1.972407        -2.013185         1.100135
 H         1.908939        -1.646965        -1.804308
