19
Iteration:  4244charge 0 multiplicity 1
 C        -0.056945         0.104391        -0.279421
 C         1.452624         0.002756        -0.305553
 O         2.050233         0.628261         0.983623
 C         2.607126         1.032150        -0.279324
 C         3.405006        -0.116445        -0.949403
 O         4.699067        -0.777890        -0.422989
 C         4.213036        -1.906743         0.472609
 C         2.784412        -2.382270         0.047277
 C         2.289505        -1.181968        -0.650271
 H        -0.392526        -0.391293        -1.162930
 H        -0.470890        -0.298031         0.694700
 H        -0.471199         1.103715        -0.196105
 H         2.649948         2.118559        -0.450099
 H         3.481485         0.183433        -2.016293
 H         4.915160        -2.720773         0.452335
 H         4.024645        -1.402842         1.433933
 H         2.736915        -3.287247        -0.452343
 H         2.216265        -2.611923         0.979741
 H         1.855048        -1.248284        -1.655049
