19
Iteration:  1531
 C        -0.030558         0.185935        -0.183454
 C         1.431975         0.039175        -0.296293
 O         2.011475         0.407157         0.917835
 C         2.604392         0.960113        -0.194270
 C         3.588725        -0.051259        -0.858506
 O         4.516707        -0.653772        -0.012085
 C         4.282298        -2.097107         0.047704
 C         2.709587        -2.226871         0.017401
 C         2.314400        -1.107688        -0.874501
 H        -0.314123        -0.629709         0.475078
 H        -0.332292         1.083706         0.408058
 H        -0.691720         0.068916        -0.997425
 H         2.575729         2.057864        -0.150780
 H         3.933051         0.347037        -1.831385
 H         4.796931        -2.563860        -0.755832
 H         4.652279        -2.470312         1.073654
 H         2.561750        -3.154510        -0.506135
 H         2.398643        -2.176749         1.090778
 H         2.019104        -1.370084        -1.915681
