19
Iteration:   983
 C        -0.051100         0.337001         0.021968
 C         1.373808         0.004585        -0.185564
 O         2.125771         0.678756         0.981276
 C         2.583352         0.900807        -0.404863
 C         3.447905        -0.211336        -0.807861
 O         4.476948        -0.568387         0.074185
 C         4.240622        -2.107147         0.195553
 C         2.910439        -2.518750        -0.426445
 C         2.287132        -1.144735        -0.856743
 H        -0.456424        -0.285044         0.818027
 H        -0.073471         1.391846         0.223810
 H        -0.789415         0.170389        -0.742716
 H         2.704467         1.908965        -0.775814
 H         3.844790        -0.133658        -1.843324
 H         5.186488        -2.627195        -0.175744
 H         4.017466        -2.199857         1.217053
 H         3.025184        -3.141693        -1.315791
 H         2.369715        -3.157656         0.391013
 H         1.882199        -1.134940        -1.828400
