19
Iteration:   304charge 0 multiplicity 1
 C         0.086694         0.254286        -0.458645
 C         1.479956         0.045836        -0.063467
 O         2.156500         0.129868         1.234953
 C         2.668760         0.901992        -0.011850
 C         3.411585        -0.063110        -1.045916
 O         4.578023        -0.642120        -0.404596
 C         4.104215        -1.808164         0.431227
 C         2.707698        -2.274955        -0.100031
 C         2.186276        -1.058542        -0.947997
 H        -0.369968         1.273215        -0.238040
 H         0.088209         0.049373        -1.562622
 H        -0.519902        -0.628240         0.045251
 H         2.817304         1.993927         0.123461
 H         3.735812         0.416631        -1.998412
 H         4.926764        -2.597817         0.396566
 H         4.086563        -1.506240         1.457683
 H         2.815949        -3.245512        -0.793186
 H         2.049190        -2.467990         0.772553
 H         1.740271        -1.394290        -1.846873
