19
Iteration:  2696
 C        -0.042707         0.300381        -0.366393
 C         1.391581         0.125088        -0.228261
 O         2.032388         0.228159         1.063857
 C         2.692091         0.851544         0.010371
 C         3.478511        -0.124880        -0.973850
 O         4.631532        -0.741275        -0.489103
 C         4.226364        -1.922222         0.294274
 C         2.725419        -2.108646         0.222512
 C         2.284433        -1.102810        -0.898926
 H        -0.418553         0.135860        -1.411677
 H        -0.457944        -0.563179         0.171393
 H        -0.509222         1.177862         0.108027
 H         2.970225         1.890941         0.074645
 H         3.656128         0.444576        -1.921244
 H         4.690691        -2.728282        -0.252068
 H         4.753553        -1.843052         1.295489
 H         2.474898        -3.110218        -0.164574
 H         2.156284        -2.082934         1.212774
 H         1.858026        -1.666352        -1.754460
