19
Iteration:  4790charge 0 multiplicity 1
 C        -0.030685         0.136113        -0.427819
 C         1.418967         0.057280        -0.150892
 O         2.114498         0.533161         1.029384
 C         2.626361         1.000380        -0.378394
 C         3.444074        -0.212218        -0.978358
 O         4.605524        -0.664187        -0.310563
 C         4.283474        -1.932136         0.274542
 C         2.767158        -2.291964         0.312087
 C         2.215001        -1.167394        -0.690816
 H        -0.210964         0.088986        -1.574363
 H        -0.729463        -0.727850         0.037693
 H        -0.456715         1.128723        -0.165647
 H         2.309060         1.975732        -0.821142
 H         3.479724        -0.095548        -2.064652
 H         4.953069        -2.738167        -0.169596
 H         4.702529        -1.695237         1.258383
 H         2.522745        -3.371296        -0.000541
 H         2.325987        -2.176652         1.315481
 H         1.761038        -1.693740        -1.559954
