19
Iteration:  4513
 C        -0.107407         0.047005        -0.427413
 C         1.394580         0.069424        -0.107556
 O         1.986330         0.786963         0.965922
 C         2.578049         0.982261        -0.367051
 C         3.485268        -0.188201        -0.898875
 O         4.551130        -0.753659        -0.181087
 C         4.308727        -2.111744         0.038260
 C         2.874802        -2.181330         0.308753
 C         2.369248        -1.160040        -0.622036
 H        -0.381221         0.144492        -1.526787
 H        -0.442708        -0.980327        -0.121921
 H        -0.736702         0.889597         0.065870
 H         2.612709         2.044447        -0.698437
 H         3.740244        -0.268973        -1.937830
 H         4.539929        -2.697021        -0.907935
 H         4.851112        -2.661224         0.872241
 H         2.423634        -3.128440        -0.006863
 H         2.852994        -2.054926         1.420494
 H         1.962925        -1.620068        -1.518880
