19
Iteration:   429
 C        -0.067970        -0.010144        -0.239553
 C         1.489578         0.120722        -0.230568
 O         2.245725         0.256601         1.069814
 C         2.676525         0.953775        -0.121298
 C         3.534506        -0.048199        -0.949747
 O         4.624903        -0.758383        -0.313093
 C         4.043854        -1.852119         0.413056
 C         2.592464        -2.165994        -0.090937
 C         2.270908        -0.983024        -0.974490
 H        -0.215431        -0.439752         0.720273
 H        -0.599318         0.933382        -0.379853
 H        -0.288690        -0.681601        -0.973585
 H         2.605517         2.022004         0.041947
 H         4.015957         0.356443        -1.854712
 H         4.708587        -2.617095         0.329460
 H         3.901739        -1.515230         1.477865
 H         2.635035        -3.084573        -0.638481
 H         1.854916        -2.245565         0.764883
 H         1.846460        -1.211749        -2.000020
