19
Iteration:   761charge 0 multiplicity 1
 C        -0.017900        -0.125974        -0.045172
 C         1.488807         0.083984        -0.220346
 O         2.128829         0.336611         0.960092
 C         2.693563         1.040544        -0.260363
 C         3.554256        -0.023737        -0.953982
 O         4.631044        -0.850895        -0.314097
 C         3.979276        -1.836257         0.540751
 C         2.635849        -2.093270        -0.121157
 C         2.359352        -0.978742        -1.022129
 H        -0.083431        -1.049382         0.510341
 H        -0.516312         0.581677         0.628159
 H        -0.598257        -0.184889        -0.968344
 H         2.801816         2.147767        -0.171399
 H         3.918110         0.371908        -1.935068
 H         4.561204        -2.745768         0.406045
 H         3.984885        -1.578588         1.639185
 H         2.624784        -3.086433        -0.682236
 H         1.812911        -2.166475         0.538711
 H         1.889899        -1.189156        -2.044361
