19
Iteration:   232charge 0 multiplicity 1
 C        -0.073585         0.208897        -0.068222
 C         1.378780        -0.002872        -0.268113
 O         2.028422         0.510215         1.025568
 C         2.599460         0.896100        -0.198155
 C         3.525244        -0.042204        -0.770013
 O         4.623442        -0.752596        -0.177270
 C         4.112094        -1.961637         0.393156
 C         2.857837        -2.389862        -0.408293
 C         2.359209        -1.069025        -0.952752
 H        -0.168646         1.135170         0.500192
 H        -0.689207         0.173017        -0.923088
 H        -0.333650        -0.567742         0.574992
 H         2.678587         1.972834        -0.379873
 H         3.792035         0.403915        -1.742004
 H         4.969061        -2.603079         0.462468
 H         3.812471        -1.752129         1.470697
 H         3.107922        -3.023676        -1.166196
 H         2.124890        -2.822341         0.216156
 H         2.032127        -1.041364        -2.039532
