19
Iteration:  4433charge 0 multiplicity 1
 C         0.000597         0.358316        -0.196069
 C         1.402743        -0.026934        -0.328213
 O         2.010186         0.342319         0.873499
 C         2.553386         0.850969        -0.386740
 C         3.416345        -0.217126        -0.958736
 O         4.604152        -0.532146        -0.216324
 C         4.316788        -1.886753         0.332711
 C         2.793007        -2.248772         0.261630
 C         2.297525        -1.239530        -0.779972
 H        -0.582687        -0.101261        -1.064168
 H        -0.479157         0.150642         0.886842
 H        -0.113565         1.475145        -0.234291
 H         2.581485         1.932472        -0.549589
 H         3.687923        -0.106260        -2.005380
 H         4.901995        -2.526115        -0.428082
 H         4.609428        -2.152979         1.356517
 H         2.749526        -3.352388         0.026556
 H         2.394350        -2.172115         1.234756
 H         1.917498        -1.520135        -1.801425
