19
Iteration:  1838
 C        -0.069126         0.288575        -0.186638
 C         1.423474         0.036064        -0.215204
 O         1.968506         0.426040         1.063172
 C         2.639781         0.928311        -0.209972
 C         3.471852        -0.190115        -0.870020
 O         4.557414        -0.653377        -0.132559
 C         4.356064        -1.954510         0.165029
 C         2.793642        -2.348860        -0.119042
 C         2.261383        -1.097431        -0.904326
 H        -0.437179        -0.621924         0.324972
 H        -0.325396         1.227805         0.301107
 H        -0.360890         0.229250        -1.279000
 H         2.739688         2.051592        -0.203253
 H         3.864627         0.149895        -1.859927
 H         5.137631        -2.591109        -0.238646
 H         4.339793        -1.930145         1.351742
 H         2.826239        -3.158511        -0.896700
 H         2.254554        -2.581326         0.852737
 H         1.879203        -1.409449        -1.878170
