19
Iteration:  1483
 C        -0.032806         0.455568        -0.435297
 C         1.390982         0.018033        -0.156617
 O         2.093430         0.261132         1.087678
 C         2.604457         0.906435        -0.142678
 C         3.338132        -0.197756        -0.937168
 O         4.405012        -0.594337        -0.052527
 C         4.406203        -1.972930         0.052219
 C         2.972851        -2.366156         0.038319
 C         2.184674        -1.125374        -0.802669
 H        -0.913693        -0.183543        -0.489806
 H        -0.292956         1.167578         0.293115
 H        -0.029082         0.950348        -1.389759
 H         2.835879         1.955840        -0.018348
 H         3.612657         0.102145        -1.965392
 H         4.875552        -2.365823        -0.847352
 H         5.054837        -2.184874         0.868825
 H         2.888597        -3.352978        -0.483434
 H         2.741325        -2.262847         1.072186
 H         1.731176        -1.444025        -1.703591
