19
Iteration:   715charge 0 multiplicity 1
 C         0.085579         0.111850        -0.183194
 C         1.535922        -0.043346        -0.067598
 O         2.310595         0.395585         1.026926
 C         2.637404         0.975439        -0.303359
 C         3.430745        -0.120104        -1.034567
 O         4.386657        -0.631369        -0.209633
 C         4.000590        -1.821621         0.509729
 C         2.785913        -2.387906        -0.193301
 C         2.246410        -1.057519        -0.925239
 H        -0.532921        -0.787085         0.042238
 H        -0.251855         0.847912         0.542162
 H        -0.170405         0.518082        -1.198851
 H         2.632487         2.041192        -0.377299
 H         3.927324         0.107169        -1.988265
 H         4.797746        -2.496350         0.470404
 H         3.797167        -1.543784         1.634094
 H         3.104153        -3.084458        -0.986723
 H         2.034317        -2.908449         0.358368
 H         1.701755        -1.131610        -1.922245
