19
Iteration:   652charge 0 multiplicity 1
 C        -0.022887         0.443683        -0.238343
 C         1.442198         0.028051        -0.177065
 O         1.965800         0.314646         1.115440
 C         2.582087         0.872213        -0.183117
 C         3.423851        -0.169567        -0.946432
 O         4.667871        -0.696876        -0.342019
 C         4.199082        -1.857329         0.442596
 C         2.928004        -2.383914        -0.157756
 C         2.223842        -1.150379        -0.895225
 H        -0.411322         0.190180         0.703113
 H        -0.031583         1.504409        -0.351002
 H        -0.605766        -0.004774        -1.042684
 H         2.568718         1.946092        -0.154267
 H         3.570690         0.312050        -1.936759
 H         5.020330        -2.607947         0.418872
 H         4.053681        -1.550463         1.441635
 H         3.223485        -3.140406        -0.964583
 H         2.328919        -2.916556         0.536025
 H         1.692987        -1.346390        -1.882775
