19
Iteration:  4976charge 0 multiplicity 1
 C        -0.066273         0.131741        -0.225757
 C         1.490497        -0.068895        -0.248479
 O         2.228660         0.497279         0.902115
 C         2.575936         0.931551        -0.453659
 C         3.491859        -0.221833        -1.040445
 O         4.440767        -0.550559        -0.055335
 C         4.231869        -1.967981         0.314720
 C         2.722178        -2.163756         0.189728
 C         2.293464        -1.201050        -0.813648
 H        -0.592036         0.367101        -1.157087
 H        -0.571477        -0.685590         0.359614
 H        -0.099221         1.066375         0.341871
 H         2.476853         1.927315        -0.796610
 H         3.889106         0.042605        -2.067483
 H         4.822909        -2.622803        -0.392030
 H         4.594067        -2.083728         1.381385
 H         2.447578        -3.263375         0.052602
 H         2.311994        -1.872994         1.154096
 H         1.999459        -1.623275        -1.817119
