19
Iteration:    50
 C         0.061222         0.466072        -0.345988
 C         1.412744        -0.053910        -0.088244
 O         1.895518         0.333356         1.068531
 C         2.631578         0.868181        -0.053508
 C         3.347808        -0.135098        -0.905319
 O         4.620278        -0.686199        -0.371953
 C         4.321877        -1.896336         0.370087
 C         2.970872        -2.320293        -0.197689
 C         2.116115        -1.163597        -0.757745
 H        -0.098105         1.319585         0.377165
 H         0.010710         0.868930        -1.408188
 H        -0.775132        -0.296670        -0.270540
 H         2.686867         1.917748        -0.346575
 H         3.575678         0.349668        -1.882462
 H         5.172121        -2.624351         0.297492
 H         4.232146        -1.726010         1.477206
 H         3.318695        -2.964744        -1.157213
 H         2.532191        -3.277814         0.485130
 H         1.600772        -1.435253        -1.693051
