19
Iteration:  3744charge 0 multiplicity 1
 C         0.021691         0.129075        -0.040623
 C         1.483609         0.043694        -0.302155
 O         2.212486         0.370433         0.955655
 C         2.629070         0.961005        -0.332442
 C         3.520357        -0.174492        -0.978646
 O         4.527096        -0.795747        -0.382210
 C         4.018432        -1.587851         0.664766
 C         2.779349        -2.345977        -0.051156
 C         2.276767        -1.153961        -0.954106
 H        -0.509608        -0.029770        -0.986317
 H        -0.385080        -0.845013         0.459436
 H        -0.299640         1.075568         0.413861
 H         2.440937         2.025543        -0.021943
 H         3.753997         0.110715        -2.037493
 H         4.782933        -2.323621         0.864036
 H         3.719774        -0.932406         1.504803
 H         3.005634        -3.061778        -0.833377
 H         1.920581        -2.611914         0.593727
 H         1.858322        -1.394600        -1.933116
