19
Iteration:  4700
 C        -0.018450         0.158040        -0.069068
 C         1.444970        -0.009177        -0.233368
 O         2.335788         0.391285         0.894389
 C         2.549374         0.916129        -0.477016
 C         3.459209        -0.181498        -1.124979
 O         4.513870        -0.590417        -0.201888
 C         4.036648        -1.752358         0.647555
 C         2.775024        -2.348097         0.061312
 C         2.287454        -1.178638        -0.971915
 H        -0.544796         0.254968        -1.093092
 H        -0.366255        -0.734443         0.533073
 H        -0.124361         1.215548         0.418271
 H         2.650271         1.978320        -0.539250
 H         3.932793        -0.040280        -2.080924
 H         4.721113        -2.588999         0.762414
 H         3.813725        -1.241464         1.621346
 H         2.945183        -3.285003        -0.412330
 H         2.033404        -2.529538         0.897408
 H         1.803683        -1.423988        -1.910235
