19
Iteration:  3747
 C         0.053946         0.110398        -0.055761
 C         1.522837         0.005045        -0.293253
 O         2.213040         0.355220         0.941147
 C         2.640085         0.963289        -0.293410
 C         3.506725        -0.179249        -0.985470
 O         4.523898        -0.776877        -0.394090
 C         3.996042        -1.548980         0.663146
 C         2.744450        -2.301572        -0.031184
 C         2.260108        -1.155143        -0.970837
 H        -0.461259        -0.018020        -1.037188
 H        -0.316134        -0.832460         0.446173
 H        -0.291920         1.006562         0.490524
 H         2.576263         2.017906        -0.083479
 H         3.756308         0.036855        -2.002191
 H         4.740983        -2.340291         0.876793
 H         3.719589        -1.023015         1.588339
 H         2.933786        -3.029449        -0.878930
 H         1.948036        -2.691731         0.615036
 H         1.784742        -1.437354        -1.901387
