19
Iteration:  4451charge 0 multiplicity 1
 C        -0.117096         0.352546        -0.289646
 C         1.356676        -0.074322        -0.237569
 O         2.142765         0.404085         0.928173
 C         2.492491         0.905802        -0.368208
 C         3.484200        -0.155433        -0.982746
 O         4.525440        -0.596441        -0.116001
 C         4.380466        -1.990327         0.240979
 C         2.854716        -2.185635         0.265507
 C         2.247448        -1.310427        -0.861239
 H        -0.670161        -0.127061        -1.053318
 H        -0.538779         0.180759         0.662847
 H        -0.170345         1.427717        -0.270076
 H         2.571170         1.993728        -0.567084
 H         3.776232        -0.031654        -2.062487
 H         4.958006        -2.625626        -0.426594
 H         4.921371        -1.900467         1.200509
 H         2.447594        -3.179791         0.129645
 H         2.527852        -1.644972         1.222936
 H         1.959839        -1.853924        -1.759454
