19
Iteration:  2449charge 0 multiplicity 1
 C        -0.049264         0.609202        -0.376092
 C         1.365734        -0.076253        -0.273224
 O         2.039794         0.267301         1.059875
 C         2.533453         0.788501        -0.194053
 C         3.422890        -0.246529        -0.956276
 O         4.577846        -0.545155        -0.303183
 C         4.291419        -1.965430         0.202162
 C         2.855545        -2.261075         0.223375
 C         2.337612        -1.223140        -0.768619
 H         0.093328         1.397166        -1.042033
 H        -0.938588         0.141972        -0.764053
 H        -0.248049         0.938212         0.602008
 H         2.585252         1.898721        -0.194696
 H         3.560940        -0.033486        -2.041943
 H         4.991200        -2.662611        -0.345316
 H         4.740609        -2.038987         1.197646
 H         2.777771        -3.232029        -0.178906
 H         2.469250        -2.050556         1.222296
 H         1.856769        -1.752419        -1.572211
