19
Iteration:  4326charge 0 multiplicity 1
 C        -0.072287         0.229252        -0.135811
 C         1.438209        -0.009475        -0.270006
 O         2.152027         0.373012         0.960472
 C         2.583906         0.904580        -0.327408
 C         3.487602        -0.290450        -1.085244
 O         4.632401        -0.753398        -0.418426
 C         4.069312        -1.661014         0.658078
 C         2.840697        -2.193187         0.060682
 C         2.269633        -1.250020        -0.882748
 H        -0.574319         0.702063        -0.999311
 H        -0.615218        -0.596811         0.104104
 H        -0.045977         1.079866         0.505483
 H         2.430250         1.984945        -0.294767
 H         3.854031         0.133675        -2.033561
 H         4.871658        -2.292654         1.049031
 H         3.767050        -1.084594         1.511934
 H         3.231267        -3.086898        -0.542923
 H         2.267730        -2.497613         0.924722
 H         1.726529        -1.352629        -1.844544
