19
Iteration:  4254charge 0 multiplicity 1
 C        -0.061237         0.148602        -0.289590
 C         1.420532        -0.037351        -0.177040
 O         2.109929         0.560091         0.941892
 C         2.653303         1.004784        -0.294759
 C         3.421142        -0.145428        -0.943753
 O         4.609701        -0.730014        -0.375100
 C         4.173872        -1.845937         0.442487
 C         2.805110        -2.361237         0.072294
 C         2.276102        -1.151094        -0.767434
 H        -0.638270        -0.329710        -1.084075
 H        -0.502937        -0.411661         0.610933
 H        -0.240666         1.234776        -0.364439
 H         2.662888         2.092964        -0.384064
 H         3.743713         0.043437        -1.989339
 H         4.971533        -2.608160         0.479143
 H         4.161114        -1.439528         1.499525
 H         2.888636        -3.223853        -0.548683
 H         2.187093        -2.531305         0.997212
 H         1.853475        -1.780061        -1.522729
