19
Iteration:  4676charge 0 multiplicity 1
 C         0.069085         0.114299        -0.147899
 C         1.463987        -0.029530        -0.186463
 O         2.250268         0.426892         0.930119
 C         2.646416         0.872328        -0.357539
 C         3.469821        -0.176183        -1.032088
 O         4.503588        -0.745282        -0.345942
 C         4.029587        -1.563832         0.666938
 C         2.767081        -2.294392        -0.047647
 C         2.215125        -1.172888        -0.878649
 H        -0.427738        -0.251911        -1.088885
 H        -0.120918        -0.579650         0.674545
 H        -0.222624         1.230857         0.013181
 H         2.652168         1.957249        -0.478570
 H         3.856032        -0.044935        -2.066038
 H         4.702844        -2.311936         1.035779
 H         3.713124        -0.897090         1.509054
 H         3.064967        -3.081125        -0.707352
 H         2.031691        -2.764253         0.601542
 H         1.624066        -1.491660        -1.771246
