19
Iteration:  1370
 C        -0.073372         0.248726        -0.377377
 C         1.464550        -0.014929        -0.122048
 O         2.068107         0.290180         1.102847
 C         2.538614         1.082565        -0.152033
 C         3.517523        -0.025022        -0.829441
 O         4.531498        -0.656601        -0.059938
 C         4.373330        -2.100034        -0.007879
 C         2.758662        -2.269044        -0.056155
 C         2.240704        -1.107779        -0.882861
 H        -0.594486        -0.171209         0.488287
 H        -0.291032         1.366606        -0.315258
 H        -0.230352        -0.268235        -1.363797
 H         2.553616         2.195082        -0.046057
 H         3.843453         0.267479        -1.860613
 H         4.826830        -2.600260        -0.855330
 H         4.660534        -2.345885         0.948130
 H         2.342562        -3.276785        -0.373542
 H         2.575269        -2.012470         0.994153
 H         1.742152        -1.397083        -1.879537
