19
Iteration:  3943
 C        -0.027331         0.072274        -0.386491
 C         1.418595         0.023447        -0.182707
 O         1.934266         0.730836         1.037902
 C         2.611482         0.974710        -0.264852
 C         3.469618        -0.186989        -0.943141
 O         4.604029        -0.681882        -0.198435
 C         4.323535        -2.073753         0.140914
 C         2.844281        -2.232521         0.249334
 C         2.267439        -1.210872        -0.794856
 H        -0.227037         0.146974        -1.483807
 H        -0.613897        -0.750028         0.085725
 H        -0.418285         0.973357         0.113852
 H         2.539164         2.025237        -0.349931
 H         3.773443        -0.049689        -2.019633
 H         4.697911        -2.712707        -0.760074
 H         4.933634        -2.315934         1.002470
 H         2.559852        -3.278459        -0.051474
 H         2.383403        -2.072653         1.201983
 H         1.729620        -1.461629        -1.704656
