19
Iteration:  2204
 C        -0.001798        -0.002388        -0.220706
 C         1.492705         0.074807        -0.178377
 O         2.253643         0.160415         1.067738
 C         2.729455         0.909019        -0.104948
 C         3.493987        -0.028983        -1.016489
 O         4.494936        -0.752685        -0.383060
 C         3.979521        -1.704740         0.589660
 C         2.679662        -2.138176        -0.168522
 C         2.309105        -0.951495        -0.997097
 H        -0.267726        -0.967802         0.244605
 H        -0.469813         0.756597         0.367912
 H        -0.378561        -0.121071        -1.236343
 H         2.791156         2.028095         0.002366
 H         3.894759         0.438332        -1.931070
 H         4.682071        -2.660346         0.489960
 H         3.843093        -1.402165         1.639646
 H         2.898785        -3.063103        -0.711050
 H         1.906883        -2.481628         0.538927
 H         1.800139        -1.278600        -1.930140
