19
Iteration:  1311
 C        -0.127318         0.303003        -0.092263
 C         1.415533         0.006967        -0.106663
 O         2.160032         0.635624         0.998484
 C         2.513589         0.987325        -0.412023
 C         3.468516        -0.123262        -0.783732
 O         4.264011        -0.686257         0.188075
 C         4.375938        -2.136599         0.039433
 C         3.010885        -2.437532        -0.322715
 C         2.342546        -1.131168        -0.845329
 H        -0.690064        -0.665151         0.001103
 H        -0.448544         1.136742         0.528820
 H        -0.447858         0.592921        -1.098209
 H         2.505461         1.956900        -0.865871
 H         3.949550        -0.021290        -1.763507
 H         5.097954        -2.368309        -0.706941
 H         4.816999        -2.665179         0.921319
 H         2.887755        -3.072767        -1.100642
 H         2.442935        -2.852205         0.522594
 H         1.960081        -1.177066        -1.844452
