19
Iteration:  4870
 C        -0.019256         0.290701        -0.540477
 C         1.391533         0.011238        -0.236778
 O         1.998894         0.576635         0.994728
 C         2.577014         0.921219        -0.241802
 C         3.397957        -0.268781        -0.928478
 O         4.561276        -0.627902        -0.270136
 C         4.346042        -2.011376         0.152899
 C         2.929586        -2.236943         0.368903
 C         2.236073        -1.271606        -0.638190
 H        -0.415604        -0.296850        -1.344400
 H        -0.473465        -0.256710         0.385746
 H        -0.315143         1.371922        -0.518250
 H         2.561439         1.954684        -0.507143
 H         3.439308        -0.057423        -1.995798
 H         4.617371        -2.727240        -0.683141
 H         5.056154        -2.068834         0.940041
 H         2.697609        -3.305854         0.439697
 H         2.642591        -1.650369         1.279308
 H         1.780265        -1.680175        -1.542749
