19
Iteration:  1255charge 0 multiplicity 1
 C        -0.079086        -0.074837        -0.177628
 C         1.454970         0.078777        -0.322469
 O         2.199857         0.374400         1.016459
 C         2.595126         1.032646        -0.123582
 C         3.612512         0.016525        -0.958675
 O         4.511974        -0.684367        -0.020518
 C         4.200976        -2.114414         0.188764
 C         2.655906        -2.192891        -0.070499
 C         2.268207        -0.934261        -0.995300
 H        -0.421969        -0.994782         0.347208
 H        -0.541386         0.706411         0.357478
 H        -0.486033        -0.029716        -1.204189
 H         2.695789         2.138000        -0.055436
 H         4.104246         0.179430        -1.909739
 H         4.741746        -2.648123        -0.524442
 H         4.481483        -2.331513         1.262269
 H         2.270714        -3.120704        -0.300553
 H         2.225837        -1.920283         0.873858
 H         1.904178        -1.082603        -1.987963
