19
Iteration:  4711charge 0 multiplicity 1
 C        -0.060587         0.227531        -0.063575
 C         1.415851        -0.005020        -0.224353
 O         2.314653         0.422053         0.817162
 C         2.534964         0.893194        -0.508247
 C         3.550140        -0.169108        -1.051470
 O         4.464942        -0.660939        -0.150014
 C         4.155647        -1.772438         0.605997
 C         2.773147        -2.321516         0.010233
 C         2.282778        -1.176803        -0.919794
 H        -0.686208         0.282310        -1.034028
 H        -0.483076        -0.719729         0.425885
 H        -0.418372         0.981135         0.760874
 H         2.462314         1.961348        -0.596739
 H         3.958577        -0.093270        -2.038743
 H         5.114238        -2.305134         0.595799
 H         3.972436        -1.460641         1.695265
 H         2.742493        -3.271186        -0.457076
 H         2.003540        -2.285250         0.824593
 H         1.908325        -1.704695        -1.770598
