19
Iteration:  4660
 C        -0.109868         0.124785        -0.157222
 C         1.477853         0.052843        -0.174409
 O         2.181096         0.476173         1.021813
 C         2.624700         0.984537        -0.349235
 C         3.475555        -0.218388        -1.076407
 O         4.654709        -0.854466        -0.441227
 C         3.972960        -1.665943         0.691694
 C         2.875377        -2.330038         0.005484
 C         2.261634        -1.133399        -0.895718
 H        -0.528913        -0.293163        -1.051297
 H        -0.662741        -0.369179         0.656099
 H        -0.511512         1.083307        -0.185609
 H         2.682827         2.072929        -0.474752
 H         3.672800         0.122360        -2.135123
 H         4.935590        -2.228203         0.880869
 H         3.619301        -1.090594         1.532021
 H         3.327086        -3.124764        -0.679659
 H         2.138183        -2.654988         0.778729
 H         1.887930        -1.571012        -1.870370
