19
Iteration:    46
 C         0.038799         0.491288        -0.308998
 C         1.381072        -0.062920        -0.132107
 O         1.862062         0.345460         1.082614
 C         2.624795         0.861011        -0.088951
 C         3.370849        -0.154993        -0.905710
 O         4.656142        -0.718198        -0.365013
 C         4.334917        -1.893006         0.371307
 C         2.975285        -2.329769        -0.205037
 C         2.146084        -1.141926        -0.748695
 H        -0.145386         1.295631         0.483403
 H        -0.082742         0.894011        -1.336499
 H        -0.749282        -0.283642        -0.203262
 H         2.622778         1.924579        -0.403023
 H         3.574930         0.335022        -1.848979
 H         5.120652        -2.595372         0.274760
 H         4.193554        -1.718853         1.476293
 H         3.326345        -2.797539        -1.136302
 H         2.549748        -3.194741         0.412930
 H         1.692913        -1.467786        -1.699992
