19
Iteration:  4683
 C         0.076870         0.117122        -0.116305
 C         1.539845        -0.073521        -0.204477
 O         2.267792         0.412468         0.872817
 C         2.669392         0.892384        -0.350850
 C         3.461049        -0.184385        -1.020515
 O         4.516687        -0.666860        -0.311514
 C         3.980705        -1.581140         0.689625
 C         2.705822        -2.273175        -0.053856
 C         2.201221        -1.209560        -0.876661
 H        -0.420545        -0.104105        -1.019699
 H        -0.361289        -0.545756         0.647217
 H        -0.169664         1.089259         0.132800
 H         2.594113         1.980760        -0.554240
 H         3.650659        -0.093106        -2.136628
 H         4.898072        -2.245115         0.729422
 H         3.747954        -1.123879         1.632881
 H         3.086616        -3.060029        -0.798666
 H         1.906392        -2.632168         0.592881
 H         1.767407        -1.776449        -1.740363
