19
Iteration:  1614charge 0 multiplicity 1
 C        -0.197259         0.281838        -0.224698
 C         1.409434         0.071564        -0.249766
 O         2.073840         0.324391         1.035432
 C         2.655063         0.910648        -0.234378
 C         3.494434        -0.152038        -0.911517
 O         4.511000        -0.645027        -0.045365
 C         4.339899        -2.014996         0.153337
 C         2.816585        -2.264162        -0.061087
 C         2.273245        -1.067133        -0.888954
 H        -0.526003         0.004563         0.802830
 H        -0.246539         1.384865        -0.335038
 H        -0.658916        -0.189028        -1.090214
 H         2.839111         2.015758        -0.329042
 H         3.820893         0.150346        -1.915498
 H         5.144866        -2.601989        -0.413735
 H         4.552610        -2.207228         1.179186
 H         2.703716        -3.270243        -0.458878
 H         2.398013        -2.417257         0.906443
 H         1.976091        -1.258273        -1.898716
