19
Iteration:  2251charge 0 multiplicity 1
 C        -0.066521         0.162927        -0.126369
 C         1.422411         0.021743        -0.135024
 O         2.111537         0.490146         1.035943
 C         2.600339         0.964951        -0.194675
 C         3.534611        -0.101228        -0.914966
 O         4.566966        -0.782350        -0.265869
 C         4.121947        -1.921199         0.433998
 C         2.887466        -2.333181        -0.286560
 C         2.263231        -1.062569        -0.920488
 H        -0.678011        -0.729472        -0.326515
 H        -0.343585         0.468828         0.905248
 H        -0.361384         0.893546        -0.935715
 H         2.590232         2.020636        -0.271689
 H         3.872770         0.316781        -1.896518
 H         4.998488        -2.584091         0.447679
 H         3.722122        -1.697787         1.487694
 H         3.110254        -2.982723        -1.150140
 H         2.148724        -3.017012         0.315538
 H         1.790154        -1.120059        -1.889044
