19
Iteration:  3624charge 0 multiplicity 1
 C        -0.114411         0.179232        -0.270847
 C         1.404748         0.090888        -0.435936
 O         1.997910         0.503467         0.917745
 C         2.613849         0.937983        -0.276600
 C         3.488643        -0.153732        -0.847843
 O         4.527946        -0.671076        -0.106969
 C         4.350169        -2.140583        -0.010237
 C         2.791380        -2.139007         0.396599
 C         2.369785        -1.161871        -0.787567
 H        -0.812194         0.206108        -1.101093
 H        -0.347652        -0.790064         0.331266
 H        -0.303190         1.031839         0.414672
 H         2.599749         2.049113        -0.300883
 H         3.728960         0.155187        -1.874363
 H         4.424503        -2.719931        -0.940421
 H         5.087815        -2.453803         0.761826
 H         2.514157        -3.233661         0.229584
 H         2.469864        -1.582718         1.317456
 H         2.234431        -1.658707        -1.744813
