19
Iteration:   740charge 0 multiplicity 1
 C         0.002226        -0.137381        -0.160161
 C         1.485165         0.069741        -0.225958
 O         2.448604         0.387243         1.031281
 C         2.634749         1.000439        -0.196825
 C         3.530908        -0.101544        -1.018008
 O         4.535869        -0.683617        -0.239956
 C         3.942585        -1.801472         0.486767
 C         2.596349        -2.237419        -0.120812
 C         2.246823        -0.989751        -0.975890
 H        -0.209352        -1.117062         0.104481
 H        -0.671197         0.425226         0.464146
 H        -0.277478         0.026632        -1.178588
 H         2.575431         2.118623        -0.101918
 H         4.100304         0.147739        -1.940425
 H         4.692085        -2.624076         0.575136
 H         3.664189        -1.453845         1.464283
 H         2.470237        -3.132299        -0.800899
 H         1.781992        -2.411584         0.532599
 H         1.735688        -1.192580        -1.973549
