19
Iteration:   117charge 0 multiplicity 1
 C        -0.048478         0.190544        -0.236430
 C         1.498013         0.174218        -0.329869
 O         1.921188         0.073196         1.093781
 C         2.742852         0.850478         0.002900
 C         3.548938        -0.044880        -0.916309
 O         4.602171        -0.711097        -0.455476
 C         4.130289        -1.821528         0.423344
 C         2.738546        -2.196746        -0.035356
 C         2.339378        -0.983050        -0.984639
 H        -0.495321         1.045421         0.230912
 H        -0.581617        -0.096922        -1.189216
 H        -0.242166        -0.682758         0.455612
 H         2.772908         1.879914         0.226608
 H         3.729425         0.479130        -1.888056
 H         4.925338        -2.644237         0.442515
 H         4.088298        -1.407437         1.412242
 H         2.699510        -3.213152        -0.636476
 H         2.058513        -2.182767         0.898767
 H         2.140487        -1.335558        -1.981746
