19
Iteration:  1413
 C        -0.048561         0.094588        -0.433292
 C         1.418768         0.168183        -0.280279
 O         1.838493         0.255651         1.054906
 C         2.693477         0.970095         0.126296
 C         3.545500        -0.012811        -0.796352
 O         4.720847        -0.706134        -0.382751
 C         4.252172        -2.100435        -0.010292
 C         2.715242        -2.140843         0.188831
 C         2.284382        -1.048213        -0.799995
 H        -0.542313        -0.502972         0.358968
 H        -0.412457         1.145491        -0.097968
 H        -0.449054        -0.190868        -1.466547
 H         2.778722         2.053126         0.388894
 H         3.853259         0.457512        -1.749059
 H         4.615221        -2.679276        -0.895609
 H         4.740318        -2.434284         0.897338
 H         2.455417        -3.134388        -0.076332
 H         2.463331        -1.607283         1.104533
 H         2.077058        -1.398732        -1.879707
