19
Iteration:   436charge 0 multiplicity 1
 C        -0.005450         0.019756        -0.154061
 C         1.445830         0.156739        -0.310445
 O         2.167230         0.249549         1.031159
 C         2.644880         1.017100        -0.139183
 C         3.542789        -0.070598        -0.918574
 O         4.610531        -0.810412        -0.338680
 C         4.022936        -1.871796         0.438256
 C         2.650321        -2.180847        -0.084625
 C         2.336811        -0.938172        -0.961123
 H        -0.044997        -0.590726         0.838769
 H        -0.790369         0.834775        -0.098133
 H        -0.339868        -0.760124        -0.974210
 H         2.761652         2.087560         0.011200
 H         3.977470         0.400225        -1.805554
 H         4.871509        -2.700226         0.437474
 H         3.811495        -1.471720         1.423984
 H         2.619597        -3.127590        -0.761051
 H         1.841409        -2.352027         0.595350
 H         2.060184        -1.262217        -1.920332
