19
Iteration:  2006charge 0 multiplicity 1
 C        -0.048391         0.215942        -0.395658
 C         1.410239        -0.028257        -0.109551
 O         2.135007         0.396090         1.145202
 C         2.504716         0.942767        -0.107733
 C         3.464187        -0.074903        -0.797475
 O         4.582766        -0.606330        -0.178748
 C         4.295526        -2.060019         0.058079
 C         2.761492        -2.303594        -0.088114
 C         2.302552        -1.071422        -0.840763
 H        -0.635770        -0.537396         0.081842
 H        -0.454891         1.250725        -0.273855
 H        -0.062605         0.078544        -1.464195
 H         2.473519         2.011794         0.011468
 H         3.689038         0.187910        -1.870091
 H         5.050589        -2.575248        -0.560560
 H         4.533834        -2.214124         1.114842
 H         2.348533        -3.171319        -0.743852
 H         2.189468        -2.167972         0.825495
 H         1.966498        -1.273456        -1.917687
