19
Iteration:   430
 C        -0.062779        -0.006936        -0.226776
 C         1.483117         0.129218        -0.243528
 O         2.235540         0.254741         1.065900
 C         2.671680         0.960668        -0.126381
 C         3.532183        -0.053325        -0.945419
 O         4.624658        -0.767021        -0.316211
 C         4.042374        -1.857699         0.412849
 C         2.601181        -2.169143        -0.089648
 C         2.283475        -0.975099        -0.968327
 H        -0.164473        -0.450965         0.707465
 H        -0.624942         0.902917        -0.340839
 H        -0.283637        -0.680188        -0.953306
 H         2.612409         2.044214         0.050414
 H         4.029937         0.365346        -1.837571
 H         4.724846        -2.600162         0.341005
 H         3.868478        -1.498485         1.464814
 H         2.635601        -3.057597        -0.632314
 H         1.831223        -2.263223         0.743434
 H         1.865407        -1.229881        -2.018836
