19
Iteration:  1314charge 0 multiplicity 1
 C        -0.119597         0.311170        -0.089395
 C         1.394427         0.024795        -0.096468
 O         2.142520         0.626624         0.985852
 C         2.523534         0.989355        -0.415286
 C         3.444565        -0.121455        -0.773236
 O         4.269698        -0.681964         0.189760
 C         4.395020        -2.153458         0.039588
 C         3.034129        -2.457763        -0.328545
 C         2.325407        -1.126477        -0.824517
 H        -0.696833        -0.651408        -0.019298
 H        -0.421811         1.246161         0.554643
 H        -0.330700         0.559573        -1.162954
 H         2.519796         1.993304        -0.840718
 H         3.854472        -0.015902        -1.821935
 H         5.150757        -2.473967        -0.717896
 H         4.822203        -2.608548         0.885645
 H         2.971167        -3.169072        -1.210939
 H         2.444460        -2.768489         0.589847
 H         1.974691        -1.141744        -1.910644
