19
Iteration:  1703
 C        -0.040280         0.085200        -0.493139
 C         1.418545         0.092957        -0.232385
 O         2.030731         0.412995         1.122178
 C         2.668847         1.001595        -0.035968
 C         3.395065        -0.077780        -0.799987
 O         4.598575        -0.688867        -0.243000
 C         4.340693        -2.081874        -0.045392
 C         2.676339        -2.213493         0.109530
 C         2.329437        -1.046930        -0.713039
 H        -0.488051        -0.935332        -0.521157
 H        -0.700947         0.776870         0.130829
 H        -0.194675         0.626243        -1.406489
 H         2.864213         2.066452         0.109240
 H         3.513804         0.383101        -1.788499
 H         4.605826        -2.687852        -0.940307
 H         4.896623        -2.441267         0.829970
 H         2.292589        -3.180408        -0.205082
 H         2.383192        -2.125281         1.173519
 H         2.158248        -1.509517        -1.637348
