19
Iteration:   988charge 0 multiplicity 1
 C        -0.087635         0.351128         0.017768
 C         1.384543         0.020938        -0.176396
 O         2.162496         0.698978         0.978218
 C         2.497958         0.906371        -0.454067
 C         3.460866        -0.203679        -0.805806
 O         4.458010        -0.594882         0.092266
 C         4.272604        -2.155551         0.220440
 C         2.935082        -2.536538        -0.456264
 C         2.291688        -1.128744        -0.851439
 H        -0.382551        -0.194213         0.950351
 H        -0.138213         1.426267         0.348852
 H        -0.874799         0.199319        -0.767613
 H         2.652646         1.969168        -0.742506
 H         3.830043         0.025545        -1.828386
 H         5.223803        -2.624150        -0.064120
 H         4.141341        -2.386492         1.347836
 H         3.096541        -3.124032        -1.379594
 H         2.393119        -3.085134         0.306116
 H         1.928257        -1.238078        -1.943102
