19
Iteration:  1969
 C         0.040327         0.407807        -0.285365
 C         1.400052         0.049487        -0.102335
 O         2.062037         0.304454         1.085208
 C         2.550588         0.952654        -0.155314
 C         3.385956        -0.148818        -0.899682
 O         4.505124        -0.536694        -0.207952
 C         4.306133        -1.952853         0.283634
 C         2.897029        -2.469084        -0.278402
 C         2.263864        -1.163713        -0.823369
 H        -0.651102        -0.193800         0.361155
 H        -0.120131         1.390284         0.091744
 H        -0.377143         0.167791        -1.300835
 H         2.571114         2.054924        -0.085421
 H         3.686090         0.221785        -1.898918
 H         5.098859        -2.612971         0.179759
 H         4.074087        -1.858102         1.380959
 H         2.935133        -3.210041        -1.095594
 H         2.501227        -3.129650         0.517898
 H         1.940146        -1.546540        -1.774354
