19
Iteration:  4831charge 0 multiplicity 1
 C        -0.150468         0.382936        -0.424862
 C         1.353708        -0.041007        -0.279916
 O         1.978808         0.356300         0.965392
 C         2.550310         0.860345        -0.263159
 C         3.454540        -0.224992        -0.961791
 O         4.711819        -0.660490        -0.399721
 C         4.358484        -1.963517         0.283209
 C         2.850427        -2.073009         0.453385
 C         2.292726        -1.235752        -0.747009
 H        -0.701059        -0.109376        -1.287689
 H        -0.646343         0.108065         0.492748
 H        -0.404721         1.453564        -0.465042
 H         2.485411         2.003536        -0.364424
 H         3.784727        -0.022665        -2.008646
 H         4.726731        -2.664324        -0.441537
 H         4.738269        -2.387041         1.264327
 H         2.612117        -3.110371         0.638792
 H         2.654505        -1.623940         1.428139
 H         2.048248        -1.573474        -1.755738
