19
Iteration:  1292charge 0 multiplicity 1
 C        -0.015216         0.124621        -0.111182
 C         1.428303        -0.019360        -0.169787
 O         2.180179         0.632509         0.969418
 C         2.569374         0.978631        -0.318715
 C         3.567156        -0.127284        -0.866095
 O         4.393926        -0.580236         0.267094
 C         4.276010        -1.998310         0.039004
 C         2.726715        -2.489620        -0.316554
 C         2.252676        -1.121197        -0.890907
 H        -0.540232        -0.874366         0.045451
 H        -0.077839         0.947249         0.724323
 H        -0.413438         0.527554        -1.060070
 H         2.485156         2.040641        -0.497039
 H         4.119206         0.073108        -1.832054
 H         4.935734        -2.439202        -0.770348
 H         4.731946        -2.473137         0.880529
 H         2.837739        -3.327738        -1.079386
 H         2.142519        -2.633899         0.645990
 H         1.791188        -1.164233        -1.934070
