19
Iteration:  4216
 C        -0.154659         0.053874        -0.301715
 C         1.471478         0.008565        -0.123527
 O         2.003350         0.656794         1.004212
 C         2.652637         0.993163        -0.303419
 C         3.463430        -0.152099        -1.025160
 O         4.608162        -0.898406        -0.411507
 C         4.255919        -1.883216         0.499169
 C         2.862653        -2.191503         0.066526
 C         2.286680        -1.152206        -0.760633
 H        -0.393012        -0.255695        -1.364288
 H        -0.668461        -0.570953         0.412829
 H        -0.543462         1.085107        -0.110277
 H         2.817131         2.088284        -0.387893
 H         3.755839         0.284527        -2.006254
 H         4.869366        -2.825592         0.423023
 H         4.379219        -1.545592         1.566488
 H         2.971278        -3.190290        -0.570291
 H         2.179014        -2.393238         0.880166
 H         1.656629        -1.257194        -1.669028
