19
Iteration:  2675charge 0 multiplicity 1
 C        -0.045288         0.153556        -0.323647
 C         1.414716         0.137628        -0.246542
 O         1.988057         0.289959         1.067881
 C         2.695329         0.985252        -0.039605
 C         3.555069        -0.053827        -0.855478
 O         4.653072        -0.876759        -0.508307
 C         4.256473        -1.971359         0.272066
 C         2.695784        -2.117996         0.082859
 C         2.217612        -1.036932        -0.856856
 H        -0.401443        -0.525160        -1.153581
 H        -0.405213        -0.383282         0.596097
 H        -0.432215         1.199019        -0.395567
 H         2.860714         2.011604         0.223485
 H         3.586070         0.298167        -1.889339
 H         4.902466        -2.772824        -0.008259
 H         4.437501        -1.828584         1.377275
 H         2.314614        -3.134839        -0.076076
 H         2.308396        -1.889756         1.147537
 H         1.959804        -1.077389        -1.901410
