19
Iteration:  3087charge 0 multiplicity 1
 C        -0.088250         0.236004         0.017066
 C         1.443353         0.050792        -0.093227
 O         2.308101         0.704439         0.836571
 C         2.550072         0.956008        -0.511877
 C         3.483807        -0.202311        -1.064505
 O         4.465395        -0.701790        -0.061518
 C         4.132776        -1.976410         0.544437
 C         2.854245        -2.469323        -0.187449
 C         2.250337        -1.215063        -0.878064
 H        -0.682486        -0.664668        -0.261299
 H        -0.410740         0.655201         0.971435
 H        -0.346867         1.106478        -0.581542
 H         2.564403         1.929909        -1.077162
 H         3.786882         0.035166        -2.079380
 H         4.896485        -2.744924         0.451117
 H         4.085452        -1.804074         1.608394
 H         3.286555        -3.242321        -0.825626
 H         2.098019        -2.765807         0.587174
 H         1.698397        -1.425188        -1.833662
