19
Iteration:  3597charge 0 multiplicity 1
 C        -0.090343         0.078107        -0.411769
 C         1.358401         0.000558        -0.178623
 O         1.977262         0.509658         0.980967
 C         2.600627         0.962763        -0.287742
 C         3.507335        -0.157770        -0.887933
 O         4.711406        -0.748303        -0.194348
 C         4.343313        -2.100821        -0.018703
 C         2.757950        -2.018357         0.385404
 C         2.260028        -1.093457        -0.744688
 H        -0.323027         0.374750        -1.477970
 H        -0.609851        -0.806196        -0.098647
 H        -0.485692         0.929634         0.161346
 H         2.559413         2.048702        -0.185849
 H         3.774292         0.180634        -1.927765
 H         4.428380        -2.846591        -0.868729
 H         4.965441        -2.512747         0.779379
 H         2.438263        -3.025518         0.441464
 H         2.514748        -1.432911         1.282955
 H         1.738293        -1.471291        -1.682599
