19
Iteration:  2980
 C        -0.109556         0.280839        -0.357948
 C         1.449822         0.100858        -0.199927
 O         2.095696         0.182589         1.085917
 C         2.756906         0.855918        -0.148049
 C         3.432646        -0.234515        -1.091245
 O         4.649353        -0.831545        -0.624969
 C         4.208014        -1.730684         0.529952
 C         2.758455        -2.028455         0.267409
 C         2.155426        -1.133856        -0.890180
 H        -0.672943        -0.691517        -0.522900
 H        -0.357509         0.564906         0.728913
 H        -0.438106         1.019342        -1.109917
 H         3.204558         1.900806         0.035617
 H         3.511531         0.195116        -2.150678
 H         4.965185        -2.526194         0.456678
 H         4.342290        -1.064221         1.489349
 H         2.593250        -3.057458         0.092008
 H         2.336226        -2.019042         1.298633
 H         1.640825        -1.602418        -1.752117
