19
Iteration:  2371charge 0 multiplicity 1
 C        -0.013761         0.052686        -0.483863
 C         1.456747         0.040054        -0.219664
 O         1.881752         0.563737         1.111387
 C         2.576371         1.057888        -0.001629
 C         3.483243        -0.066619        -0.807720
 O         4.644010        -0.841620        -0.272885
 C         4.272809        -2.214618        -0.110042
 C         2.776748        -2.107110         0.184173
 C         2.349761        -1.021582        -0.747203
 H        -0.448492        -0.160517        -1.419792
 H        -0.447485        -0.716430         0.171859
 H        -0.325375         1.073959        -0.249870
 H         2.661838         2.165375         0.024906
 H         3.734055         0.378385        -1.795286
 H         4.410675        -2.663111        -1.127266
 H         4.823522        -2.544656         0.800477
 H         2.351403        -3.098495         0.150627
 H         2.730187        -1.790436         1.283056
 H         2.134353        -1.413029        -1.739474
