19
Iteration:  3207charge 0 multiplicity 1
 C        -0.065933         0.453614        -0.255275
 C         1.384238        -0.027604        -0.112669
 O         2.132008         0.444651         0.949069
 C         2.567331         0.852737        -0.390049
 C         3.436578        -0.295501        -0.999855
 O         4.664955        -0.752377        -0.520415
 C         4.196491        -1.701390         0.647980
 C         2.871559        -2.327682         0.088075
 C         2.159484        -1.277199        -0.762134
 H        -0.195788         0.898268        -1.231244
 H        -0.924567        -0.218990        -0.265997
 H        -0.188191         1.118501         0.566644
 H         2.641920         1.940690        -0.278043
 H         3.658095        -0.031256        -2.015874
 H         5.068191        -2.377289         0.656683
 H         4.139705        -1.321033         1.673237
 H         3.224521        -3.179370        -0.585794
 H         2.419629        -2.790236         1.005967
 H         1.672781        -1.575167        -1.711205
