19
Iteration:   532charge 0 multiplicity 1
 C        -0.032167         0.408781        -0.261677
 C         1.386733        -0.061704        -0.023330
 O         2.224741         0.333860         1.064963
 C         2.565007         0.897309        -0.210116
 C         3.416465        -0.135087        -0.980789
 O         4.510619        -0.559407        -0.171620
 C         4.192334        -1.832623         0.408004
 C         2.852282        -2.466962        -0.307705
 C         2.269445        -1.191783        -0.880517
 H        -0.694756        -0.434065        -0.203210
 H        -0.339622         1.147598         0.444676
 H        -0.050925         0.868423        -1.274401
 H         2.617472         1.972274        -0.332073
 H         3.796556         0.115851        -1.982677
 H         5.112609        -2.492352         0.412545
 H         3.936289        -1.672222         1.417134
 H         3.018752        -3.230166        -1.106469
 H         2.332546        -3.046090         0.413797
 H         1.569439        -1.366032        -1.724319
