19
Iteration:  4126
 C        -0.035120         0.360630        -0.191982
 C         1.398669        -0.057653        -0.318929
 O         2.064847         0.370441         0.956455
 C         2.619649         0.911356        -0.273119
 C         3.417453        -0.210868        -1.061854
 O         4.564378        -0.743964        -0.456589
 C         4.175718        -1.636645         0.667652
 C         2.911758        -2.324483         0.107493
 C         2.283605        -1.265814        -0.834892
 H        -0.580494         0.608451        -1.108159
 H        -0.584399        -0.461225         0.354470
 H        -0.120091         1.164529         0.540107
 H         2.829343         1.987082        -0.425140
 H         3.611124        -0.093781        -2.144278
 H         5.047707        -2.261439         0.991364
 H         3.807214        -1.069017         1.636311
 H         3.151343        -3.159856        -0.646049
 H         2.276099        -2.845853         0.876230
 H         2.095819        -1.546602        -1.940640
