19
Iteration:  4880
 C        -0.026564         0.186231        -0.505244
 C         1.422024         0.046471        -0.138264
 O         2.010420         0.605695         0.980655
 C         2.610017         0.937867        -0.377961
 C         3.352139        -0.195773        -0.891104
 O         4.567987        -0.629592        -0.235695
 C         4.392259        -2.015295         0.097561
 C         2.852913        -2.238594         0.390895
 C         2.210606        -1.266939        -0.637702
 H        -0.016590        -0.142939        -1.541136
 H        -0.879792        -0.253177         0.216106
 H        -0.282317         1.286300        -0.576390
 H         2.823070         1.962459        -0.423323
 H         3.504730        -0.080807        -1.962320
 H         4.783915        -2.639387        -0.736399
 H         4.998930        -2.292767         0.945127
 H         2.560185        -3.310396         0.193160
 H         2.543019        -2.043499         1.448911
 H         1.808718        -1.869657        -1.458838
