19
Iteration:  4092charge 0 multiplicity 1
 C        -0.067801         0.096767        -0.360255
 C         1.440130        -0.046031        -0.067855
 O         2.208363         0.527740         0.998720
 C         2.601527         0.976598        -0.297151
 C         3.422900        -0.119470        -1.048673
 O         4.650251        -0.759882        -0.415143
 C         4.162425        -1.787774         0.551798
 C         2.758103        -2.333231         0.034003
 C         2.189840        -1.118665        -0.737887
 H        -0.165288        -0.251729        -1.366880
 H        -0.673300        -0.656017         0.219624
 H        -0.341034         1.152980        -0.308189
 H         2.649735         2.084956        -0.321648
 H         3.611212        -0.070897        -2.135763
 H         5.127735        -2.358887         0.751305
 H         3.818289        -1.194268         1.500532
 H         2.782460        -3.247976        -0.612199
 H         2.326656        -2.530823         1.074972
 H         1.909118        -1.558384        -1.753338
