19
Iteration:  2134charge 0 multiplicity 1
 C        -0.107365         0.458348        -0.394140
 C         1.385134        -0.042314        -0.133910
 O         2.028160         0.338775         1.126198
 C         2.575500         0.937477        -0.171030
 C         3.458394        -0.094589        -0.838825
 O         4.558241        -0.574374        -0.184432
 C         4.383365        -1.992164         0.139616
 C         2.938976        -2.449796        -0.189518
 C         2.194052        -1.159984        -0.707394
 H        -0.802933        -0.059090         0.291781
 H        -0.146547         1.558948        -0.147406
 H        -0.527984         0.103649        -1.358610
 H         2.492554         1.970221        -0.361761
 H         3.747755         0.200773        -1.846982
 H         5.281890        -2.598636        -0.370020
 H         4.490715        -2.019253         1.272759
 H         2.905344        -3.387265        -0.772972
 H         2.385978        -2.746393         0.706404
 H         1.715487        -1.465491        -1.651247
