19
Iteration:  2088
 C         0.012073         0.224706        -0.453998
 C         1.449564        -0.008690        -0.124868
 O         2.028192         0.414136         1.156528
 C         2.546502         0.980015        -0.149638
 C         3.433015        -0.055861        -0.804122
 O         4.539806        -0.611302        -0.101750
 C         4.279882        -2.064577        -0.110407
 C         2.804930        -2.321894         0.026549
 C         2.330037        -1.137060        -0.772296
 H        -0.749779        -0.590344        -0.308136
 H        -0.210531         0.984477         0.282964
 H        -0.185208         0.442392        -1.547848
 H         2.391432         2.040371        -0.277589
 H         3.650563         0.245470        -1.831826
 H         4.845865        -2.466329        -1.102686
 H         4.768588        -2.395532         0.854267
 H         2.373287        -3.238283        -0.325941
 H         2.582005        -2.299165         1.129357
 H         2.035138        -1.294979        -1.789419
