19
Iteration:  2556charge 0 multiplicity 1
 C         0.005177         0.125524         0.088047
 C         1.456646         0.046088        -0.236466
 O         2.279430         0.410760         0.971759
 C         2.677780         0.936832        -0.312560
 C         3.495813        -0.123760        -0.991882
 O         4.540997        -0.768584        -0.188515
 C         3.914720        -1.758807         0.596541
 C         2.796986        -2.293216        -0.327812
 C         2.238960        -1.100696        -1.058207
 H        -0.460009        -0.555967        -0.710671
 H        -0.116821        -0.305454         1.116901
 H        -0.377965         1.171065         0.002341
 H         2.744813         2.012864        -0.514286
 H         3.947873         0.168953        -1.927290
 H         4.619558        -2.496686         1.044289
 H         3.345665        -1.275693         1.409005
 H         3.070186        -3.038575        -1.042086
 H         2.017402        -2.828339         0.307650
 H         1.920173        -1.439716        -2.037556
