19
Iteration:   918
 C         0.030692         0.096775        -0.286789
 C         1.468824         0.094665        -0.225330
 O         2.095713         0.145350         1.098655
 C         2.696257         0.909226        -0.065316
 C         3.509482        -0.045578        -1.002625
 O         4.635729        -0.691399        -0.432343
 C         4.114641        -1.868807         0.346075
 C         2.621468        -2.109334         0.134846
 C         2.232683        -1.010186        -0.955586
 H        -0.315514        -0.846352         0.151559
 H        -0.376082         0.935475         0.267217
 H        -0.295471         0.189545        -1.302878
 H         3.009468         1.927456        -0.000882
 H         3.744737         0.411826        -1.985817
 H         4.604819        -2.914355         0.009693
 H         4.460467        -1.702678         1.347463
 H         2.544449        -3.055385        -0.413558
 H         1.886954        -1.982663         1.055391
 H         1.811336        -1.360504        -1.859400
