19
Iteration:  2037
 C        -0.052347         0.130362        -0.264603
 C         1.411668         0.079560        -0.342258
 O         1.923082         0.317412         1.022785
 C         2.613069         0.959787        -0.049793
 C         3.544884        -0.070773        -0.786435
 O         4.582402        -0.683395        -0.135351
 C         4.283959        -2.102410        -0.053841
 C         2.757334        -2.081600         0.127646
 C         2.383315        -1.028451        -0.893621
 H        -0.338846        -0.870828         0.050592
 H        -0.512835         0.901411         0.393832
 H        -0.486494         0.093322        -1.285921
 H         2.818443         1.995071         0.151023
 H         3.806801         0.305776        -1.813376
 H         4.602868        -2.579807        -0.928119
 H         4.997706        -2.557329         0.655198
 H         2.154977        -3.022061        -0.191221
 H         2.339281        -2.008696         1.146363
 H         2.088430        -1.364460        -1.938830
