19
Iteration:  3896charge 0 multiplicity 1
 C        -0.104864         0.209217        -0.438050
 C         1.389070        -0.022003        -0.279700
 O         2.045579         0.433930         1.029508
 C         2.520057         0.960175        -0.229156
 C         3.500878        -0.206649        -0.895835
 O         4.578733        -0.663552        -0.123694
 C         4.333936        -2.053569        -0.027711
 C         2.820979        -2.113872         0.350147
 C         2.318746        -1.114848        -0.739619
 H        -0.453205        -0.308898        -1.309442
 H        -0.637484        -0.211017         0.449786
 H        -0.368420         1.248868        -0.584831
 H         2.569401         1.981208        -0.576303
 H         3.722186         0.035138        -1.962531
 H         4.545794        -2.394833        -1.095130
 H         5.014042        -2.530856         0.717094
 H         2.274802        -3.044108         0.521540
 H         2.809664        -1.563381         1.332452
 H         2.050631        -1.767060        -1.580380
