19
Iteration:  2352charge 0 multiplicity 1
 C        -0.096794         0.102284        -0.357225
 C         1.392976         0.158521        -0.223272
 O         1.948041         0.468711         1.050766
 C         2.608688         0.980860        -0.146942
 C         3.589752        -0.089871        -0.742317
 O         4.665062        -0.719817        -0.117747
 C         4.251610        -2.198129        -0.144803
 C         2.771529        -2.185748         0.180734
 C         2.290897        -1.039162        -0.835725
 H        -0.260693        -0.705474        -1.140681
 H        -0.508188        -0.466209         0.578871
 H        -0.691930         1.029713        -0.521742
 H         2.702345         2.087617        -0.399087
 H         4.009632         0.359306        -1.684234
 H         4.398796        -2.571113        -1.199401
 H         4.913969        -2.552249         0.675563
 H         2.089165        -3.052115        -0.112958
 H         2.687647        -1.820177         1.252434
 H         2.008831        -1.360992        -1.853647
