19
Iteration:  4039
 C        -0.156031         0.232938        -0.174260
 C         1.352292        -0.029140        -0.294457
 O         2.085099         0.394525         0.909907
 C         2.584865         0.934954        -0.381261
 C         3.574642        -0.152959        -0.947865
 O         4.654697        -0.626761        -0.278012
 C         4.204151        -1.910456         0.441573
 C         2.755409        -2.261797         0.164938
 C         2.317007        -1.138765        -0.853426
 H        -0.750273        -0.169436        -0.986723
 H        -0.353158        -0.482774         0.683358
 H        -0.490767         1.262227         0.037450
 H         2.692616         1.999404        -0.618084
 H         3.916132         0.009098        -1.998230
 H         4.877088        -2.539466        -0.079947
 H         4.411007        -1.694856         1.521124
 H         2.656361        -3.364218        -0.110605
 H         2.284487        -2.223435         1.177495
 H         2.196115        -1.504533        -1.929498
