19
Iteration:  3119
 C         0.075414         0.019939         0.103753
 C         1.476540         0.112533        -0.283816
 O         2.310244         0.568086         0.796789
 C         2.685931         1.000106        -0.550613
 C         3.521657        -0.161544        -1.055744
 O         4.467762        -0.671260        -0.062805
 C         3.986137        -1.884887         0.563057
 C         2.647937        -2.323831        -0.089202
 C         2.251836        -1.159936        -0.885908
 H        -0.397318        -0.955426        -0.141599
 H         0.075417        -0.023123         1.155494
 H        -0.477826         0.836310        -0.318207
 H         2.561053         2.044503        -0.977483
 H         3.820009         0.084811        -2.069690
 H         4.761445        -2.662853         0.333962
 H         3.832563        -1.774316         1.618571
 H         2.741128        -3.358859        -0.500579
 H         1.997688        -2.771260         0.695045
 H         1.762628        -1.313752        -1.888010
