19
Iteration:  4198
 C        -0.048931         0.127895        -0.324206
 C         1.386939         0.038960        -0.223595
 O         2.160870         0.500570         1.001543
 C         2.602764         0.954057        -0.301077
 C         3.449751        -0.204317        -0.943455
 O         4.654215        -0.722528        -0.450865
 C         4.198714        -1.826712         0.512380
 C         2.744363        -2.314088         0.131532
 C         2.251749        -1.098782        -0.766708
 H        -0.302319        -0.042702        -1.399223
 H        -0.506930        -0.663889         0.324433
 H        -0.535510         1.028821         0.103499
 H         2.557719         2.040031        -0.420944
 H         3.652215         0.023301        -2.026377
 H         5.033264        -2.571307         0.409920
 H         4.146152        -1.314319         1.468738
 H         2.774283        -3.260825        -0.391400
 H         2.129744        -2.542541         1.032373
 H         1.855787        -1.594379        -1.660134
