19
Iteration:  2800
 C        -0.002649         0.123395        -0.070965
 C         1.465747        -0.004431        -0.151470
 O         2.232605         0.538905         0.984431
 C         2.604298         1.001423        -0.289925
 C         3.513149        -0.106300        -1.014813
 O         4.585660        -0.824519        -0.347394
 C         4.005682        -1.855023         0.549882
 C         2.745545        -2.369042        -0.138699
 C         2.265207        -1.082296        -0.885675
 H        -0.385909         1.090408        -0.405199
 H        -0.345195        -0.672740        -0.812166
 H        -0.419131        -0.143622         0.933047
 H         2.630509         2.094421        -0.581185
 H         3.749510         0.148327        -2.039799
 H         4.787368        -2.610978         0.775053
 H         3.798585        -1.243172         1.386883
 H         2.881793        -3.244013        -0.805188
 H         1.983412        -2.430135         0.569551
 H         1.934406        -1.241841        -1.919776
