19
Iteration:  4034charge 0 multiplicity 1
 C        -0.139496         0.261591        -0.158822
 C         1.352891        -0.034620        -0.346722
 O         2.098455         0.387863         0.889331
 C         2.564736         0.876035        -0.409721
 C         3.580946        -0.085247        -0.928461
 O         4.661247        -0.645454        -0.245235
 C         4.226198        -1.889782         0.439280
 C         2.753140        -2.260212         0.203140
 C         2.288383        -1.154607        -0.886478
 H        -0.770158        -0.073461        -1.009496
 H        -0.402002        -0.344905         0.699314
 H        -0.439210         1.246164         0.225860
 H         2.444453         1.974821        -0.505146
 H         3.723745         0.192086        -1.987348
 H         4.906698        -2.671809        -0.081705
 H         4.556680        -1.854296         1.499989
 H         2.724875        -3.251571        -0.180301
 H         2.250695        -2.326710         1.179549
 H         2.193832        -1.653199        -1.825347
