19
Iteration:  1479
 C         0.000839         0.428761        -0.459575
 C         1.405111         0.059334        -0.135878
 O         2.061852         0.259201         1.105913
 C         2.605296         0.912911        -0.152617
 C         3.335084        -0.205060        -0.915275
 O         4.423109        -0.597775        -0.093721
 C         4.423524        -1.947820         0.057860
 C         2.937930        -2.347984         0.026958
 C         2.184359        -1.148602        -0.760703
 H        -0.934057        -0.192166        -0.534227
 H        -0.261713         1.163101         0.372856
 H        -0.020467         0.973334        -1.506526
 H         2.760900         1.976319        -0.000447
 H         3.528556         0.134599        -1.951462
 H         4.925320        -2.428256        -0.897773
 H         5.119209        -2.324931         0.837964
 H         2.847566        -3.293879        -0.476190
 H         2.662423        -2.461465         1.117234
 H         1.761073        -1.481427        -1.792739
