19
Iteration:  1858charge 0 multiplicity 1
 C        -0.067537         0.073930        -0.219268
 C         1.428598         0.059494        -0.228301
 O         2.123338         0.415025         1.036608
 C         2.590182         1.019489        -0.151211
 C         3.483092         0.018408        -0.912315
 O         4.618605        -0.711154        -0.230103
 C         4.159467        -2.049308         0.349479
 C         2.731722        -2.303601        -0.132176
 C         2.323142        -1.023210        -0.918993
 H        -0.470731        -0.906154         0.231292
 H        -0.219380         0.909257         0.517687
 H        -0.424628         0.173397        -1.266110
 H         2.570242         2.130377        -0.251564
 H         3.751276         0.288286        -1.930494
 H         4.752155        -2.780135        -0.129603
 H         4.415852        -1.962038         1.464233
 H         2.744942        -3.257991        -0.686853
 H         2.152769        -2.372580         0.822192
 H         1.938444        -1.351206        -1.843868
