19
Iteration:  3646
 C        -0.045933         0.219959        -0.274668
 C         1.382231         0.015730        -0.181896
 O         2.103452         0.488792         0.921385
 C         2.551205         0.973988        -0.377559
 C         3.506935        -0.146957        -0.934544
 O         4.524423        -0.574229        -0.038653
 C         4.312622        -2.065157         0.102669
 C         2.809391        -2.259657         0.169662
 C         2.256109        -1.227360        -0.758524
 H        -0.413252         0.029285        -1.287827
 H        -0.619071        -0.465364         0.462332
 H        -0.268512         1.274212        -0.017254
 H         2.593830         2.069387        -0.641557
 H         3.886255        -0.038717        -1.963434
 H         4.712481        -2.611623        -0.757747
 H         4.695615        -2.460024         1.073086
 H         2.553107        -3.346246        -0.125223
 H         2.497479        -1.987363         1.209616
 H         1.907297        -1.544762        -1.733678
