19
Iteration:  3583charge 0 multiplicity 1
 C        -0.104787         0.130748        -0.538812
 C         1.413829         0.041535        -0.162261
 O         2.081158         0.555107         1.097584
 C         2.519555         0.948365        -0.194629
 C         3.467158        -0.128841        -0.890128
 O         4.577682        -0.715651        -0.334241
 C         4.293077        -2.110990         0.089661
 C         2.826137        -2.123546         0.364072
 C         2.320538        -1.136354        -0.694200
 H        -0.179709         0.167711        -1.597883
 H        -0.585008        -0.806423        -0.311178
 H        -0.644769         0.924226        -0.059957
 H         2.635439         1.986153        -0.589942
 H         3.671689         0.104373        -1.935628
 H         4.470227        -2.666193        -0.861752
 H         5.054919        -2.355243         0.840526
 H         2.300295        -3.092574         0.174339
 H         2.654553        -1.798433         1.367608
 H         2.117610        -1.667812        -1.636277
