19
Iteration:  3810
 C        -0.015420         0.250320        -0.252277
 C         1.429113        -0.014100        -0.240078
 O         2.035895         0.490091         1.033253
 C         2.532816         0.931305        -0.331677
 C         3.466592        -0.149499        -0.996361
 O         4.564290        -0.659563        -0.357150
 C         4.239714        -1.961379         0.466093
 C         2.817806        -2.299410         0.104832
 C         2.335383        -1.162035        -0.809626
 H        -0.509654         0.401841        -1.206682
 H        -0.388314        -0.772734         0.093332
 H        -0.295286         1.043789         0.429237
 H         2.732505         1.949619        -0.615784
 H         3.811332         0.031925        -2.039612
 H         5.045517        -2.479336         0.003083
 H         4.323793        -1.795320         1.533298
 H         2.686745        -3.202193        -0.478946
 H         2.359728        -2.336918         1.098616
 H         1.819875        -1.596735        -1.651101
