19
Iteration:   696
 C        -0.067667         0.372345        -0.096130
 C         1.407970        -0.031092        -0.144304
 O         2.185056         0.417790         1.005273
 C         2.511039         0.920733        -0.308538
 C         3.475850        -0.171934        -0.981898
 O         4.623905        -0.673749        -0.181286
 C         4.102270        -1.859085         0.519804
 C         2.911466        -2.383933        -0.324896
 C         2.233565        -1.166968        -0.884649
 H        -0.636235        -0.403810         0.304618
 H        -0.198986         1.163131         0.611635
 H        -0.468591         0.681768        -1.043638
 H         2.480593         1.992762        -0.558449
 H         3.812155         0.051419        -2.016561
 H         4.914399        -2.614984         0.645697
 H         3.712441        -1.587870         1.482917
 H         3.242593        -3.134603        -1.101884
 H         2.350955        -3.035124         0.305041
 H         1.821663        -1.507156        -1.886722
