19
Iteration:  2971charge 0 multiplicity 1
 C        -0.080926         0.305794        -0.339027
 C         1.380406         0.047699        -0.171742
 O         2.129142         0.251503         1.004479
 C         2.749863         0.831480        -0.121325
 C         3.438609        -0.180549        -1.039553
 O         4.629017        -0.813685        -0.634949
 C         4.231923        -1.738812         0.476442
 C         2.735715        -2.123508         0.258925
 C         2.172667        -1.142768        -0.791066
 H        -0.449421        -0.659778        -0.538098
 H        -0.628522         0.751899         0.544669
 H        -0.291216         0.998330        -1.136132
 H         2.871755         1.939974        -0.100211
 H         3.693618         0.121542        -2.080561
 H         4.850597        -2.620985         0.640409
 H         4.439982        -1.085591         1.389815
 H         2.689773        -3.139301        -0.132283
 H         2.153389        -2.049155         1.200710
 H         1.866768        -1.595059        -1.709675
