19
Iteration:   207charge 0 multiplicity 1
 C        -0.018605         0.216998        -0.225716
 C         1.461810         0.011929         0.017140
 O         2.250781         0.428077         1.106900
 C         2.501376         1.033211        -0.249394
 C         3.481320        -0.098238        -1.034509
 O         4.474255        -0.667550        -0.076388
 C         4.065873        -1.989131         0.448735
 C         2.925503        -2.415947        -0.443603
 C         2.252288        -1.097646        -0.880207
 H        -0.310571         1.117523         0.286349
 H        -0.059730         0.360254        -1.274437
 H        -0.668482        -0.618293        -0.006521
 H         2.213780         2.114608        -0.352092
 H         3.872941         0.144584        -2.054326
 H         5.054017        -2.538809         0.466996
 H         3.723756        -1.878817         1.451870
 H         3.433788        -2.689337        -1.447953
 H         2.307590        -3.205926        -0.109511
 H         1.663162        -1.236842        -1.744958
