19
Iteration:   101charge 0 multiplicity 1
 C         0.023090         0.189445        -0.397548
 C         1.450874        -0.007924        -0.134122
 O         2.073626         0.082170         1.089470
 C         2.624178         0.933101         0.033670
 C         3.461373        -0.048653        -0.918004
 O         4.642496        -0.761411        -0.451894
 C         4.176069        -1.776811         0.412059
 C         2.706013        -2.108807        -0.049996
 C         2.237797        -0.997835        -0.944311
 H        -0.327747         1.252554        -0.163420
 H        -0.173505         0.043546        -1.469245
 H        -0.578746        -0.541472         0.181161
 H         2.897088         1.978613         0.336827
 H         3.742817         0.481188        -1.825855
 H         4.824456        -2.592255         0.190115
 H         4.277990        -1.564352         1.522331
 H         2.779891        -3.050151        -0.560488
 H         1.998674        -2.339643         0.770185
 H         1.813715        -1.330801        -1.929610
