19
Iteration:   550
 C        -0.075725         0.346566        -0.205511
 C         1.411998        -0.027726        -0.202170
 O         2.040094         0.339750         1.047179
 C         2.526010         0.946134        -0.177840
 C         3.477611        -0.095177        -0.857338
 O         4.629412        -0.725505        -0.322203
 C         4.201450        -1.941269         0.399535
 C         2.917736        -2.348437        -0.174086
 C         2.263970        -1.085306        -0.865216
 H        -0.740263        -0.449905         0.176075
 H        -0.085878         1.204336         0.475341
 H        -0.389145         0.702664        -1.166423
 H         2.547147         2.072619        -0.294289
 H         3.707287         0.300255        -1.869581
 H         4.936974        -2.637049         0.186962
 H         4.175565        -1.672115         1.518568
 H         3.085177        -3.083478        -0.941311
 H         2.173973        -2.834791         0.544052
 H         2.063541        -1.303691        -1.959327
