19
Iteration:  2108
 C         0.021295         0.345341        -0.447166
 C         1.337411         0.040154        -0.047401
 O         2.064866         0.452913         1.131828
 C         2.541827         0.912413        -0.091192
 C         3.374137        -0.125478        -0.878744
 O         4.517353        -0.616770        -0.130547
 C         4.442326        -1.997007         0.029432
 C         2.886359        -2.396946        -0.092998
 C         2.185318        -1.171702        -0.745475
 H        -0.676585        -0.520827        -0.325456
 H        -0.377140         1.281402        -0.139712
 H         0.123967         0.233838        -1.557284
 H         2.598685         2.040093        -0.097076
 H         3.754115         0.271934        -1.848260
 H         4.908440        -2.430604        -0.800658
 H         4.996381        -2.330251         0.908592
 H         2.872766        -3.307229        -0.652936
 H         2.156114        -2.669777         0.705766
 H         1.721214        -1.551678        -1.633808
