19
Iteration:   153charge 0 multiplicity 1
 C        -0.064295         0.219418        -0.146043
 C         1.438676        -0.018140        -0.175300
 O         2.075522         0.194285         1.047033
 C         2.546429         0.933480        -0.184274
 C         3.555889        -0.045739        -0.909565
 O         4.621158        -0.755924        -0.316458
 C         4.079163        -1.859665         0.514589
 C         2.813798        -2.218607        -0.251006
 C         2.338969        -0.977870        -0.965697
 H        -0.233448         1.008377         0.558084
 H        -0.485684         0.437327        -1.074938
 H        -0.533406        -0.637880         0.244219
 H         2.490865         2.043678        -0.218525
 H         3.939162         0.380297        -1.858565
 H         4.920006        -2.597073         0.405998
 H         3.906353        -1.572242         1.545115
 H         3.081168        -2.966781        -0.950356
 H         2.099736        -2.637774         0.338474
 H         2.030137        -1.204356        -1.995181
