19
Iteration:  1472charge 0 multiplicity 1
 C         0.032964         0.431286        -0.501203
 C         1.410535         0.078223        -0.101775
 O         2.002463         0.275493         1.134616
 C         2.590280         0.912189        -0.147946
 C         3.361097        -0.161202        -0.852448
 O         4.490191        -0.567073        -0.179979
 C         4.466221        -1.966556         0.005711
 C         2.845854        -2.319928         0.046436
 C         2.192809        -1.228380        -0.704251
 H        -0.637312        -0.439250        -0.498198
 H        -0.238869         1.132436         0.237189
 H         0.038485         0.952898        -1.431780
 H         2.613813         1.985221        -0.096950
 H         3.552390         0.105295        -1.911115
 H         4.900744        -2.474774        -0.824621
 H         4.981767        -2.359349         0.866585
 H         2.661146        -3.274802        -0.533470
 H         2.407335        -2.704431         0.947295
 H         1.896428        -1.533553        -1.670656
