19
Iteration:  4226
 C        -0.073950         0.077847        -0.285108
 C         1.389217         0.063880        -0.145242
 O         1.980622         0.688694         1.015730
 C         2.625075         1.006960        -0.319618
 C         3.510090        -0.214696        -0.890132
 O         4.630994        -0.882638        -0.452869
 C         4.273807        -1.889225         0.474146
 C         2.814505        -2.291334         0.079570
 C         2.274086        -1.074500        -0.823167
 H        -0.371552        -0.446117        -1.209649
 H        -0.428416        -0.552172         0.509364
 H        -0.611698         1.020758        -0.209701
 H         2.542254         2.089984        -0.508201
 H         3.925896         0.125176        -1.838632
 H         5.010460        -2.670979         0.288845
 H         4.336584        -1.407931         1.458709
 H         2.962648        -3.255685        -0.558507
 H         2.174731        -2.620937         0.880426
 H         1.782569        -1.647442        -1.631653
