19
Iteration:  4109charge 0 multiplicity 1
 C        -0.045626         0.219149        -0.269025
 C         1.417786         0.019623        -0.162755
 O         2.111029         0.480509         1.023038
 C         2.589600         0.863356        -0.331025
 C         3.465018        -0.249347        -0.985739
 O         4.611882        -0.796566        -0.436975
 C         4.167871        -1.646212         0.609219
 C         2.880272        -2.288702         0.037792
 C         2.242071        -1.204744        -0.834722
 H        -0.417534         0.215200        -1.328892
 H        -0.599844        -0.551797         0.249908
 H        -0.354522         1.214656         0.104297
 H         2.534032         1.935656        -0.519430
 H         3.665196         0.247476        -1.945376
 H         4.833125        -2.490388         0.597528
 H         4.057593        -1.048302         1.465404
 H         3.237314        -3.116120        -0.563863
 H         2.130048        -2.670847         0.688668
 H         1.613441        -1.569952        -1.617343
