19
Iteration:  4704
 C        -0.041749         0.192470        -0.073768
 C         1.428083         0.012480        -0.214694
 O         2.337569         0.401366         0.866637
 C         2.515150         0.875773        -0.489668
 C         3.502153        -0.148900        -1.101798
 O         4.484259        -0.616636        -0.178183
 C         4.088877        -1.757375         0.637274
 C         2.776297        -2.356734         0.053395
 C         2.293908        -1.158285        -0.968772
 H        -0.595114         0.291134        -0.996956
 H        -0.297261        -0.750433         0.483565
 H        -0.207524         1.079526         0.472889
 H         2.602931         1.982523        -0.515197
 H         4.018583        -0.181174        -2.093410
 H         4.874256        -2.601363         0.737108
 H         3.868788        -1.235496         1.543579
 H         2.861775        -3.379082        -0.477443
 H         2.029934        -2.385096         0.876205
 H         1.810669        -1.614961        -1.882017
