19
Iteration:  3938charge 0 multiplicity 1
 C        -0.046263         0.068812        -0.380739
 C         1.407506         0.061201        -0.239936
 O         1.918392         0.711618         1.003882
 C         2.589276         0.964253        -0.222113
 C         3.471996        -0.231072        -0.908728
 O         4.632763        -0.673729        -0.196755
 C         4.337720        -2.089604         0.073949
 C         2.807654        -2.209230         0.233049
 C         2.305316        -1.206951        -0.723064
 H        -0.311847         0.054210        -1.417425
 H        -0.649308        -0.658592         0.175375
 H        -0.334347         0.969452         0.169513
 H         2.568885         2.085035        -0.486975
 H         3.766886         0.035778        -1.917157
 H         4.617117        -2.831995        -0.617702
 H         5.007775        -2.350665         0.937274
 H         2.713018        -3.271099         0.039204
 H         2.337870        -1.882092         1.238313
 H         1.847714        -1.364053        -1.742028
