19
Iteration:  1470
 C         0.037285         0.432267        -0.500602
 C         1.408005         0.064212        -0.101473
 O         1.992801         0.284060         1.140004
 C         2.584942         0.911921        -0.139875
 C         3.367457        -0.147997        -0.841702
 O         4.511573        -0.560027        -0.194354
 C         4.463392        -1.979347        -0.003416
 C         2.830664        -2.327246         0.052183
 C         2.198550        -1.231992        -0.692708
 H        -0.566848        -0.497942        -0.483750
 H        -0.287261         1.156328         0.217359
 H         0.047150         0.976553        -1.491186
 H         2.599602         1.981079        -0.132594
 H         3.573059         0.094668        -1.903409
 H         4.907701        -2.505343        -0.869014
 H         4.923967        -2.294395         0.883745
 H         2.649441        -3.241950        -0.561216
 H         2.374564        -2.681309         0.936583
 H         1.881278        -1.562064        -1.701855
