19
Iteration:   174
 C         0.000693         0.200561        -0.259885
 C         1.513146        -0.051237        -0.097911
 O         2.306687         0.322409         1.109998
 C         2.610895         0.969660        -0.121360
 C         3.398339        -0.052916        -0.957953
 O         4.485242        -0.590598        -0.164857
 C         4.027015        -1.817846         0.443785
 C         2.830507        -2.446325        -0.365991
 C         2.215510        -1.116467        -0.971107
 H        -0.342824         1.011762         0.344200
 H        -0.096283         0.533925        -1.257986
 H        -0.650495        -0.636776        -0.121365
 H         2.600865         2.074840        -0.044553
 H         3.736593         0.284897        -1.965948
 H         4.913176        -2.513619         0.571930
 H         3.643554        -1.526121         1.399214
 H         3.217891        -3.154843        -1.109505
 H         2.217406        -3.027978         0.250618
 H         1.803919        -1.310328        -1.938527
