19
Iteration:  2829charge 0 multiplicity 1
 C         0.038978        -0.064092         0.046709
 C         1.526187         0.058542        -0.248221
 O         2.325451         0.394541         0.890445
 C         2.762624         0.986560        -0.324158
 C         3.445121        -0.143355        -1.120676
 O         4.503075        -0.789137        -0.234922
 C         3.914495        -1.725995         0.676009
 C         2.676597        -2.184913        -0.147358
 C         2.231950        -1.033080        -0.974984
 H        -0.307058         0.840078         0.488166
 H        -0.428786        -0.422372        -0.924443
 H        -0.113562        -0.877854         0.749032
 H         2.958199         2.079769        -0.461599
 H         3.760612         0.079855        -2.158864
 H         4.587803        -2.533108         0.967123
 H         3.615105        -1.093964         1.562453
 H         2.857815        -3.062370        -0.833355
 H         1.682554        -2.376465         0.421649
 H         1.852018        -1.372685        -1.917863
