19
Iteration:  4772charge 0 multiplicity 1
 C        -0.067148         0.124281        -0.394844
 C         1.370852        -0.041718        -0.102446
 O         2.220095         0.682241         0.934226
 C         2.507481         0.930903        -0.407004
 C         3.427956        -0.196800        -0.977192
 O         4.590182        -0.690712        -0.291389
 C         4.295887        -1.988652         0.410363
 C         2.785165        -2.254882         0.201804
 C         2.236934        -1.142426        -0.675185
 H        -0.258809         0.267707        -1.412364
 H        -0.457020        -0.845814        -0.200503
 H        -0.523588         0.906159         0.153117
 H         2.668321         1.988659        -0.475307
 H         3.613058         0.038531        -2.077133
 H         4.976976        -2.572911        -0.266668
 H         4.530386        -2.069053         1.465204
 H         2.696830        -3.210777        -0.366539
 H         2.189179        -2.315148         1.118503
 H         1.781673        -1.538887        -1.610280
