19
Iteration:  3702
 C        -0.002666         0.251325        -0.206716
 C         1.427420         0.059780        -0.139382
 O         2.142022         0.551656         0.988223
 C         2.505014         0.916674        -0.380121
 C         3.441647        -0.221449        -0.972077
 O         4.518920        -0.642821        -0.211593
 C         4.267231        -1.868558         0.449192
 C         2.843838        -2.451081        -0.126508
 C         2.218119        -1.162668        -0.763661
 H        -0.475876        -0.190744        -1.095642
 H        -0.499354        -0.234684         0.724081
 H        -0.135188         1.332147        -0.081134
 H         2.638187         1.915061        -0.844393
 H         3.833100        -0.137601        -2.000581
 H         5.144619        -2.535562         0.305017
 H         4.132642        -1.766661         1.552014
 H         3.115825        -3.294892        -0.898496
 H         2.221546        -2.936191         0.657759
 H         1.902300        -1.301754        -1.793455
