19
Iteration:  1009
 C        -0.059053         0.298497         0.098224
 C         1.410688         0.003038        -0.032563
 O         2.189806         0.677161         0.872530
 C         2.530581         1.060693        -0.425182
 C         3.474342        -0.153302        -0.951344
 O         4.346992        -0.733029         0.169520
 C         4.239761        -2.095042         0.249039
 C         2.950477        -2.486869        -0.413841
 C         2.344661        -1.128038        -0.910179
 H        -0.743682        -0.170077         0.821306
 H        -0.291188         1.365567         0.024766
 H        -0.497818        -0.028004        -0.874085
 H         2.256851         2.068285        -0.857592
 H         4.115568        -0.108018        -1.847151
 H         5.123469        -2.716859        -0.316079
 H         4.255564        -2.350497         1.367308
 H         3.400620        -2.859193        -1.362931
 H         2.321147        -3.347765         0.092346
 H         1.633624        -1.266155        -1.797659
