19
Iteration:  4962
 C        -0.122716         0.148745        -0.129844
 C         1.360042        -0.000082        -0.304651
 O         2.218535         0.529552         0.752667
 C         2.545790         0.940055        -0.495193
 C         3.536424        -0.155277        -0.912539
 O         4.543745        -0.608637         0.007220
 C         4.335439        -1.979720         0.256578
 C         2.685918        -2.264927         0.287959
 C         2.284359        -1.179716        -0.852703
 H        -0.532063         0.336686        -1.168549
 H        -0.580957        -0.728500         0.103492
 H        -0.457357         0.901835         0.526174
 H         2.581807         2.078861        -0.592572
 H         3.988014        -0.188185        -1.932239
 H         4.730836        -2.573056        -0.612470
 H         4.953035        -2.241272         1.193369
 H         2.365422        -3.286566         0.051346
 H         2.233698        -1.912830         1.202306
 H         1.884625        -1.551514        -1.847447
