19
Iteration:  1796charge 0 multiplicity 1
 C         0.007665         0.398637        -0.376717
 C         1.344870        -0.050192        -0.099434
 O         2.143808         0.307463         1.099714
 C         2.501333         0.880430        -0.168558
 C         3.424347        -0.057036        -0.889914
 O         4.463677        -0.598415        -0.034813
 C         4.376351        -1.964751         0.014996
 C         2.854592        -2.346604        -0.036422
 C         2.260092        -1.205822        -0.810667
 H        -0.839566         0.221935         0.199452
 H         0.023966         1.429535        -0.538366
 H        -0.266764         0.245226        -1.438620
 H         2.462832         1.988183        -0.420804
 H         3.738695         0.293470        -1.919700
 H         4.825969        -2.464965        -0.916079
 H         4.860956        -2.323431         0.970416
 H         2.565221        -3.351715        -0.420972
 H         2.568794        -2.201019         1.048724
 H         1.968233        -1.373496        -1.904501
