19
Iteration:  2606charge 0 multiplicity 1
 C        -0.065031         0.412071        -0.145895
 C         1.408307        -0.032483        -0.176579
 O         2.306674         0.392936         1.049311
 C         2.547595         0.892246        -0.247117
 C         3.463455        -0.228201        -1.020803
 O         4.458796        -0.610987        -0.120080
 C         4.138677        -1.874893         0.463241
 C         2.889112        -2.426812        -0.335423
 C         2.211239        -1.108652        -0.880378
 H        -0.790481        -0.276500        -0.578326
 H        -0.231219         0.376236         0.888975
 H        -0.107956         1.453342        -0.518580
 H         2.549612         2.019688        -0.241401
 H         3.901432        -0.146036        -2.075191
 H         4.963241        -2.612401         0.301780
 H         4.006695        -1.806868         1.568315
 H         3.225000        -3.098297        -1.196441
 H         2.243301        -3.023768         0.284771
 H         1.736959        -1.324019        -1.903979
