19
Iteration:  2320charge 0 multiplicity 1
 C        -0.033587         0.253482        -0.263266
 C         1.445650         0.027993        -0.188195
 O         2.157406         0.385320         1.010136
 C         2.579686         0.948607        -0.237329
 C         3.516986        -0.102182        -0.850859
 O         4.394130        -0.582422         0.048580
 C         4.278353        -2.052594        -0.034469
 C         2.782284        -2.325016        -0.001656
 C         2.282437        -1.120643        -0.870139
 H        -0.566982        -0.556627        -0.841851
 H        -0.424233         0.234609         0.819734
 H        -0.350819         1.170075        -0.796549
 H         2.562534         2.068948        -0.406054
 H         4.018749         0.268328        -1.774907
 H         4.787766        -2.414977        -0.919469
 H         4.909348        -2.333427         0.833859
 H         2.416651        -3.338662        -0.390498
 H         2.477337        -2.385078         1.058734
 H         1.982315        -1.441126        -1.881560
