19
Iteration:  3905charge 0 multiplicity 1
 C        -0.136863         0.177722        -0.384983
 C         1.370777         0.068471        -0.240313
 O         1.977332         0.422038         0.924662
 C         2.501915         1.044956        -0.288690
 C         3.516141        -0.114748        -0.938247
 O         4.617516        -0.695489        -0.106776
 C         4.331201        -2.178331        -0.027920
 C         2.882629        -2.138466         0.398838
 C         2.340470        -1.127421        -0.700554
 H        -0.466754        -0.228719        -1.330860
 H        -0.654125        -0.343700         0.420997
 H        -0.389017         1.234267        -0.497987
 H         2.634032         2.182606        -0.219905
 H         3.868903         0.230250        -1.901575
 H         4.261485        -2.740425        -0.934686
 H         5.091893        -2.542831         0.707813
 H         2.603855        -3.190498         0.374001
 H         2.669398        -1.667489         1.406783
 H         2.048112        -1.671304        -1.646723
