19
Iteration:  2027charge 0 multiplicity 1
 C        -0.016362         0.100192        -0.335380
 C         1.469802         0.056933        -0.211222
 O         1.937490         0.317361         1.053749
 C         2.600016         1.012543        -0.073640
 C         3.517547        -0.004665        -0.837434
 O         4.580436        -0.709544        -0.154695
 C         4.283321        -2.097946        -0.011640
 C         2.763502        -2.202999         0.119682
 C         2.310618        -1.000186        -0.916321
 H        -0.387678        -0.715474         0.256109
 H        -0.298348         1.024985         0.237363
 H        -0.435805         0.263796        -1.318478
 H         2.434824         2.069354        -0.120452
 H         4.000962         0.552507        -1.683810
 H         4.543467        -2.591762        -0.905299
 H         4.813720        -2.443104         0.888055
 H         2.481695        -3.169138        -0.445111
 H         2.296709        -1.942620         1.077748
 H         1.983410        -1.470946        -1.894705
