19
Iteration:  1411
 C        -0.056624         0.089462        -0.432009
 C         1.430402         0.146039        -0.283714
 O         1.846970         0.243221         1.050316
 C         2.720017         0.977259         0.120093
 C         3.544979        -0.006711        -0.785726
 O         4.717903        -0.696305        -0.374222
 C         4.235606        -2.080798        -0.020455
 C         2.688579        -2.122846         0.192199
 C         2.288798        -1.065695        -0.811286
 H        -0.573990        -0.496148         0.367341
 H        -0.438573         1.158778        -0.132839
 H        -0.481842        -0.212138        -1.396080
 H         2.864478         2.041174         0.426727
 H         3.841165         0.446309        -1.739470
 H         4.600227        -2.688742        -0.915859
 H         4.847735        -2.454746         0.906189
 H         2.466820        -3.091650        -0.082448
 H         2.370866        -1.590361         1.136004
 H         2.104683        -1.436084        -1.859135
