19
Iteration:  1700
 C        -0.051494         0.119195        -0.493563
 C         1.407529         0.102189        -0.234833
 O         2.065443         0.388982         1.110113
 C         2.644324         0.971247        -0.041137
 C         3.399661        -0.100388        -0.804452
 O         4.593471        -0.674536        -0.237521
 C         4.350316        -2.065471        -0.018475
 C         2.665671        -2.219036         0.098804
 C         2.341025        -1.036753        -0.682923
 H        -0.503754        -0.912852        -0.535135
 H        -0.703905         0.768100         0.152595
 H        -0.254337         0.639204        -1.528058
 H         2.857104         2.063319         0.129272
 H         3.487271         0.339253        -1.811913
 H         4.552674        -2.618574        -0.931166
 H         4.881306        -2.424580         0.781466
 H         2.412930        -3.208344        -0.280856
 H         2.451973        -2.110641         1.122899
 H         2.056307        -1.542955        -1.652621
