19
Iteration:  3082
 C        -0.090539         0.279782        -0.023012
 C         1.471012         0.064613        -0.083785
 O         2.305739         0.688992         0.863221
 C         2.555607         0.947013        -0.509745
 C         3.443740        -0.200177        -1.015755
 O         4.453647        -0.695773        -0.101374
 C         4.117005        -1.975389         0.516235
 C         2.906320        -2.531299        -0.155687
 C         2.231753        -1.190454        -0.853129
 H        -0.639589        -0.576758        -0.376240
 H        -0.362142         0.644450         0.996655
 H        -0.468127         1.071299        -0.730854
 H         2.391688         1.817948        -1.111523
 H         3.953015        -0.056128        -2.021085
 H         4.927450        -2.761451         0.368117
 H         4.071759        -1.597817         1.584953
 H         3.343434        -3.234503        -0.919953
 H         2.170741        -2.812062         0.570974
 H         1.709875        -1.437032        -1.772777
