19
Iteration:  2105charge 0 multiplicity 1
 C         0.028727         0.322438        -0.450957
 C         1.368107        -0.003509        -0.062504
 O         2.066983         0.461220         1.117063
 C         2.538951         0.929427        -0.066531
 C         3.399403        -0.101253        -0.847488
 O         4.514859        -0.606006        -0.132632
 C         4.432196        -2.003238         0.013043
 C         2.858681        -2.396955        -0.075496
 C         2.166934        -1.167745        -0.756425
 H        -0.577983        -0.564748        -0.287425
 H        -0.410432         1.289961        -0.163811
 H         0.101620         0.367101        -1.529436
 H         2.561012         2.072646        -0.198397
 H         3.771149         0.312555        -1.826190
 H         4.860710        -2.504383        -0.807944
 H         5.016918        -2.370093         0.818375
 H         2.878656        -3.389700        -0.612529
 H         2.194970        -2.592944         0.779090
 H         1.635749        -1.577185        -1.669028
