19
Iteration:  2908
 C        -0.091919         0.354841        -0.224041
 C         1.407417         0.043834        -0.132444
 O         2.253076         0.560540         0.952018
 C         2.576846         0.923264        -0.383535
 C         3.375759        -0.255291        -0.950619
 O         4.584994        -0.679325        -0.293503
 C         4.207413        -1.927914         0.479860
 C         2.944812        -2.450523        -0.116865
 C         2.132544        -1.164987        -0.669111
 H        -0.612217         0.046955         0.692269
 H        -0.243001         1.475902        -0.327172
 H        -0.548905        -0.159157        -1.091671
 H         2.564472         2.020196        -0.415132
 H         3.476779        -0.046247        -2.005226
 H         5.060338        -2.659425         0.519900
 H         3.926624        -1.627079         1.479259
 H         3.106566        -3.203965        -0.963842
 H         2.332390        -3.146482         0.475475
 H         1.763515        -1.403652        -1.662083
