19
Iteration:   964charge 0 multiplicity 1
 C         0.001385         0.246015        -0.108059
 C         1.475449         0.024110        -0.121007
 O         2.148571         0.515520         0.998394
 C         2.613677         1.000388        -0.305423
 C         3.495294        -0.140121        -0.954075
 O         4.450687        -0.656860        -0.056570
 C         4.226003        -2.011169         0.298922
 C         2.786754        -2.419098        -0.282162
 C         2.212785        -1.119504        -0.852109
 H        -0.447058        -0.398055         0.677310
 H        -0.244555         1.245088         0.132618
 H        -0.529184         0.006447        -1.049666
 H         2.563643         2.114670        -0.355248
 H         3.861116         0.218229        -1.929606
 H         5.010501        -2.597457        -0.347903
 H         4.452758        -2.248537         1.358700
 H         3.020312        -3.061888        -1.116573
 H         2.121127        -2.941025         0.537980
 H         1.728641        -1.366349        -1.804437
