19
Iteration:  1992
 C        -0.073799         0.267511        -0.439378
 C         1.368516         0.029504        -0.031679
 O         2.161808         0.355718         1.144989
 C         2.614277         0.909086        -0.099345
 C         3.392456        -0.108148        -0.883679
 O         4.514032        -0.612803        -0.157136
 C         4.362160        -1.979248         0.170795
 C         2.818242        -2.317346        -0.175541
 C         2.208075        -1.076624        -0.819779
 H        -0.843222        -0.322210         0.074750
 H        -0.308841         1.293566        -0.191591
 H        -0.232646         0.022697        -1.521367
 H         2.701191         1.928837        -0.391768
 H         3.704483         0.370713        -1.832612
 H         4.897196        -2.647391        -0.437211
 H         4.751088        -2.186362         1.208211
 H         2.958880        -3.176121        -0.884148
 H         2.364903        -2.906979         0.629314
 H         1.775485        -1.285629        -1.820954
