19
Iteration:   154
 C        -0.057803         0.223232        -0.154314
 C         1.437005        -0.011253        -0.165899
 O         2.086869         0.195186         1.050955
 C         2.537843         0.929144        -0.184206
 C         3.556512        -0.042589        -0.920925
 O         4.611816        -0.746210        -0.314287
 C         4.072938        -1.867349         0.517052
 C         2.821990        -2.232084        -0.256115
 C         2.343120        -0.984414        -0.957772
 H        -0.242164         1.015489         0.575874
 H        -0.476749         0.430757        -1.093534
 H        -0.505812        -0.646371         0.220723
 H         2.483325         2.047843        -0.237841
 H         3.947240         0.385608        -1.857841
 H         4.910219        -2.569575         0.408944
 H         3.884494        -1.580279         1.570234
 H         3.070978        -2.942896        -0.963263
 H         2.091567        -2.637095         0.330873
 H         1.984474        -1.201654        -1.998371
