19
Iteration:  1919charge 0 multiplicity 1
 C        -0.019478         0.154591        -0.106997
 C         1.470553         0.018326        -0.232323
 O         2.153356         0.164104         1.020518
 C         2.709319         0.948014        -0.162407
 C         3.483418        -0.044560        -0.916966
 O         4.605537        -0.751029        -0.365322
 C         3.973693        -1.658027         0.580326
 C         2.793282        -2.308029        -0.256522
 C         2.270809        -0.997426        -0.984045
 H        -0.397518        -0.768979         0.324495
 H        -0.388476         0.947891         0.594957
 H        -0.556140         0.232081        -1.053304
 H         2.690754         1.989438         0.027838
 H         3.774010         0.226509        -1.946848
 H         4.764551        -2.489341         0.823802
 H         3.682945        -1.280171         1.546102
 H         3.117940        -3.193044        -0.845145
 H         1.956099        -2.746799         0.311135
 H         1.905304        -1.216046        -2.049324
