19
Iteration:  3952
 C        -0.037697         0.124544        -0.406104
 C         1.464970         0.006151        -0.104821
 O         2.012504         0.652474         1.032037
 C         2.552197         0.982424        -0.334303
 C         3.465372        -0.159148        -0.939316
 O         4.542555        -0.679646        -0.199807
 C         4.345899        -2.037002         0.175165
 C         2.810560        -2.290804         0.215979
 C         2.255004        -1.143045        -0.759261
 H        -0.228933         0.146223        -1.475620
 H        -0.405682        -0.909040        -0.142658
 H        -0.559690         0.982255        -0.018526
 H         2.739101         1.976009        -0.643740
 H         3.712717         0.186643        -1.994591
 H         4.834989        -2.628495        -0.651017
 H         4.793184        -2.256998         1.146748
 H         2.427773        -3.286435        -0.133850
 H         2.550379        -2.134437         1.284701
 H         1.839302        -1.754980        -1.569333
