19
Iteration:     9
 C        -0.123188         0.325483        -0.217827
 C         1.412193        -0.005317        -0.146231
 O         2.125681         0.287916         1.028697
 C         2.643523         0.913980        -0.092424
 C         3.438774        -0.015822        -0.896946
 O         4.604460        -0.743485        -0.316385
 C         4.138504        -1.836910         0.443250
 C         2.879791        -2.405797        -0.165006
 C         2.311519        -1.085329        -1.004199
 H        -0.388587         1.208775         0.262222
 H        -0.357374         0.472390        -1.252049
 H        -0.706789        -0.507730         0.115462
 H         2.555140         1.986164        -0.102858
 H         3.831996         0.414890        -1.845050
 H         5.004669        -2.590929         0.574349
 H         3.926340        -1.475715         1.438859
 H         2.802848        -3.159509        -0.880685
 H         2.180954        -2.675366         0.496526
 H         1.924064        -1.403974        -1.974345
