19
Iteration:  4770
 C        -0.057960         0.118831        -0.378913
 C         1.356111        -0.045657        -0.094497
 O         2.219572         0.688453         0.922229
 C         2.531872         0.938345        -0.411227
 C         3.423368        -0.193700        -0.970173
 O         4.582902        -0.701633        -0.277444
 C         4.282852        -1.990176         0.413605
 C         2.807719        -2.255086         0.199896
 C         2.234700        -1.129227        -0.699262
 H        -0.289085         0.327590        -1.437378
 H        -0.539789        -0.934590        -0.200528
 H        -0.503886         0.903900         0.187047
 H         2.657585         2.038679        -0.514771
 H         3.517431         0.003226        -2.062816
 H         5.028517        -2.553789        -0.255141
 H         4.546430        -2.042860         1.464357
 H         2.723193        -3.266188        -0.376464
 H         2.157598        -2.334159         1.080409
 H         1.786262        -1.569021        -1.634479
