19
Iteration:  3409charge 0 multiplicity 1
 C        -0.068741         0.131017         0.022818
 C         1.432603         0.011940        -0.197531
 O         2.270423         0.672538         0.846315
 C         2.589908         0.992078        -0.532292
 C         3.492340        -0.219141        -1.066570
 O         4.553893        -0.717450        -0.163772
 C         4.065724        -1.884644         0.629484
 C         2.820455        -2.492435        -0.129424
 C         2.242124        -1.104372        -0.839437
 H        -0.672846         0.539919        -0.806552
 H        -0.508322        -0.749895         0.560478
 H        -0.245578         0.960994         0.766374
 H         2.442347         2.046095        -0.768077
 H         3.957988        -0.059298        -2.072065
 H         4.987189        -2.509882         0.685049
 H         3.854527        -1.575562         1.669519
 H         3.062730        -3.064779        -1.038838
 H         2.162806        -3.045363         0.511028
 H         1.747352        -1.359848        -1.801912
