19
Iteration:   457charge 0 multiplicity 1
 C        -0.035119         0.012032        -0.005771
 C         1.457365         0.018739        -0.329245
 O         2.012251         0.418661         0.936590
 C         2.734963         1.021590        -0.118410
 C         3.553872        -0.033373        -0.885283
 O         4.632888        -0.860071        -0.329550
 C         4.032590        -1.847014         0.550679
 C         2.713939        -2.237980        -0.215870
 C         2.317130        -1.004287        -1.045005
 H        -0.101572        -0.804014         0.819980
 H        -0.102384         1.030267         0.475828
 H        -0.833549        -0.083207        -0.881578
 H         2.654889         2.092820        -0.000398
 H         4.048578         0.421027        -1.754841
 H         4.843004        -2.750220         0.458985
 H         3.841558        -1.466300         1.540974
 H         3.043824        -3.158337        -0.832811
 H         1.883993        -2.612042         0.363899
 H         1.966887        -1.095465        -2.049748
