19
Iteration:   854charge 0 multiplicity 1
 C         0.083244         0.499943        -0.430766
 C         1.421853        -0.050495        -0.050245
 O         2.041651         0.267137         1.172017
 C         2.603901         0.884549        -0.076800
 C         3.302268        -0.171062        -0.945755
 O         4.537629        -0.679696        -0.468538
 C         4.279838        -1.729277         0.415275
 C         2.967353        -2.453482        -0.149634
 C         2.121305        -1.186468        -0.805028
 H        -0.775573        -0.185917        -0.339949
 H        -0.189119         1.278355         0.252525
 H         0.284418         0.846684        -1.435854
 H         2.712150         1.944433        -0.150737
 H         3.541362         0.276456        -1.915431
 H         5.209079        -2.369783         0.441844
 H         4.144370        -1.375320         1.429701
 H         3.223441        -3.276364        -0.794505
 H         2.414662        -2.928208         0.765039
 H         1.665998        -1.473209        -1.714082
