19
Iteration:  3047charge 0 multiplicity 1
 C        -0.021864         0.360948        -0.255266
 C         1.430555        -0.026658        -0.041455
 O         2.190849         0.559136         1.006104
 C         2.691449         0.875594        -0.384576
 C         3.328115        -0.289218        -1.008546
 O         4.580803        -0.698759        -0.368539
 C         4.153350        -1.820495         0.521852
 C         2.917147        -2.368985        -0.048513
 C         2.128166        -1.203442        -0.759827
 H        -0.629786        -0.486908        -0.584881
 H        -0.523683         0.689998         0.749695
 H        -0.029254         1.206348        -0.981130
 H         2.574827         1.919897        -0.632308
 H         3.714280        -0.079105        -2.058604
 H         4.924431        -2.615523         0.473534
 H         4.121179        -1.465347         1.630037
 H         3.136232        -3.057122        -0.844086
 H         2.268879        -3.009699         0.551347
 H         1.441387        -1.528569        -1.512650
