19
Iteration:   273
 C        -0.037905         0.067123        -0.268536
 C         1.483651         0.057815        -0.225279
 O         2.269842         0.109403         1.027517
 C         2.635771         0.938266        -0.082619
 C         3.492485         0.038052        -0.865947
 O         4.536833        -0.753068        -0.331784
 C         4.066615        -1.876431         0.468367
 C         2.646131        -2.134789        -0.104149
 C         2.308806        -0.916393        -0.993073
 H        -0.481402         1.089119        -0.241335
 H        -0.330131        -0.359510        -1.196402
 H        -0.499543        -0.517801         0.529885
 H         2.738357         2.043506        -0.073963
 H         3.981241         0.490383        -1.754481
 H         4.784818        -2.709540         0.353403
 H         3.935717        -1.596212         1.493375
 H         2.570783        -3.061675        -0.810775
 H         1.958441        -2.270223         0.678392
 H         2.158025        -1.229807        -1.979573
