19
Iteration:  1870
 C        -0.048937        -0.019677        -0.199370
 C         1.454850        -0.039565        -0.170876
 O         2.223591         0.350734         0.994948
 C         2.581337         1.062146        -0.190428
 C         3.531346         0.016042        -0.878940
 O         4.614611        -0.773234        -0.262951
 C         4.109001        -1.932333         0.303143
 C         2.650353        -2.216449        -0.060002
 C         2.322259        -0.960990        -0.921885
 H        -0.545878        -1.005491         0.068400
 H        -0.605012         0.785803         0.311815
 H        -0.341102         0.212062        -1.268191
 H         2.620853         2.194565        -0.116533
 H         3.989530         0.448089        -1.776002
 H         4.822143        -2.700528         0.224379
 H         3.936508        -1.787237         1.445665
 H         2.471938        -3.079102        -0.760387
 H         1.922473        -2.396562         0.778607
 H         1.988947        -1.152566        -1.923351
