19
Iteration:   900
 C        -0.077745         0.243634        -0.297915
 C         1.483953         0.110740        -0.268425
 O         1.985272         0.165824         1.031197
 C         2.703102         0.914316         0.046084
 C         3.483638        -0.099565        -0.878602
 O         4.592680        -0.838475        -0.578164
 C         4.261918        -1.810360         0.385055
 C         2.725815        -2.117028         0.055820
 C         2.292062        -1.077228        -0.918616
 H        -0.356174        -0.789472         0.061506
 H        -0.411276         0.776352         0.579900
 H        -0.479417         0.536789        -1.303041
 H         2.741633         1.961650         0.413884
 H         3.730689         0.332344        -1.849485
 H         5.008676        -2.526341         0.334148
 H         4.274428        -1.440864         1.450235
 H         2.470826        -3.121461        -0.221266
 H         2.213634        -1.863748         0.997882
 H         1.950896        -1.418079        -1.932084
