19
Iteration:  1879
 C        -0.027447        -0.033007        -0.240386
 C         1.490113         0.069964        -0.110346
 O         2.252172         0.292138         1.024363
 C         2.560694         1.002600        -0.170492
 C         3.598986        -0.052341        -0.905113
 O         4.585645        -0.726252        -0.322021
 C         4.049935        -1.883787         0.436534
 C         2.596938        -2.162175        -0.155325
 C         2.305147        -0.996292        -0.954339
 H        -0.397259        -1.112824         0.050198
 H        -0.592833         0.579368         0.528907
 H        -0.362663        -0.039352        -1.270004
 H         2.629409         2.103581        -0.113961
 H         3.969949         0.329672        -1.853866
 H         4.777802        -2.651858         0.269931
 H         4.092590        -1.616214         1.486771
 H         2.497489        -3.116003        -0.652248
 H         1.927853        -2.193753         0.741951
 H         2.032107        -1.005668        -1.957657
