19
Iteration:  2081
 C        -0.013104         0.190375        -0.401058
 C         1.401770         0.017470        -0.166940
 O         2.005292         0.381462         1.124682
 C         2.513652         0.967337        -0.158952
 C         3.463315        -0.076625        -0.832967
 O         4.545036        -0.645201        -0.083469
 C         4.288443        -2.077837        -0.137050
 C         2.801221        -2.247700         0.055773
 C         2.397688        -1.054396        -0.745907
 H        -0.560953        -0.734703        -0.241909
 H        -0.345119         1.054613         0.243370
 H        -0.147662         0.586597        -1.415396
 H         2.523904         2.036293        -0.125491
 H         3.791964         0.213915        -1.849350
 H         4.704131        -2.539664        -1.064412
 H         4.849742        -2.599113         0.661281
 H         2.331076        -3.248696        -0.190371
 H         2.420509        -2.023192         1.051821
 H         2.250229        -1.476485        -1.791075
