19
Iteration:  3718charge 0 multiplicity 1
 C        -0.123533         0.241667        -0.080163
 C         1.412319        -0.094612        -0.153464
 O         2.138469         0.544353         0.911700
 C         2.600647         0.913766        -0.369416
 C         3.495729        -0.177273        -0.971078
 O         4.664615        -0.722357        -0.279129
 C         4.125830        -1.824970         0.576094
 C         2.857301        -2.322942        -0.108629
 C         2.269304        -1.168681        -0.890553
 H        -0.658103        -0.052085        -1.004628
 H        -0.635385        -0.345750         0.625080
 H        -0.260270         1.319465         0.081103
 H         2.566863         1.997340        -0.498504
 H         3.731495         0.092076        -2.007894
 H         4.801078        -2.683010         0.474175
 H         3.945055        -1.450168         1.593682
 H         3.047322        -2.902993        -0.987573
 H         2.181274        -2.781669         0.616071
 H         1.652986        -1.477244        -1.772503
