19
Iteration:  4791
 C        -0.028989         0.140415        -0.428626
 C         1.418726         0.053446        -0.149440
 O         2.107050         0.528134         1.025112
 C         2.635270         1.003018        -0.375516
 C         3.440085        -0.212246        -0.977476
 O         4.601577        -0.666981        -0.312496
 C         4.281884        -1.930797         0.275833
 C         2.774876        -2.287985         0.320591
 C         2.212849        -1.165194        -0.696700
 H        -0.212746         0.074167        -1.551465
 H        -0.720282        -0.721376         0.044195
 H        -0.422009         1.131414        -0.184223
 H         2.329042         1.975281        -0.796420
 H         3.439461        -0.097819        -2.062294
 H         4.984343        -2.713923        -0.207259
 H         4.683350        -1.718620         1.262367
 H         2.537199        -3.384255         0.011718
 H         2.324484        -2.150952         1.312830
 H         1.771721        -1.701111        -1.574380
