19
Iteration:   722charge 0 multiplicity 1
 C         0.077615         0.041570        -0.219505
 C         1.569618        -0.004869        -0.062947
 O         2.386208         0.386423         1.035093
 C         2.651786         0.996035        -0.282233
 C         3.387279        -0.055724        -1.009388
 O         4.410238        -0.635898        -0.204743
 C         3.957543        -1.816891         0.535396
 C         2.714981        -2.352779        -0.213028
 C         2.230889        -1.074224        -0.975537
 H        -0.346041        -1.027808         0.012852
 H        -0.349721         0.753432         0.555368
 H        -0.246938         0.372773        -1.229868
 H         2.792754         2.063579        -0.498132
 H         3.717813         0.234610        -2.019432
 H         4.798111        -2.603581         0.421070
 H         3.809114        -1.568250         1.581249
 H         3.070460        -3.231098        -0.752065
 H         1.992980        -2.876320         0.562883
 H         1.809767        -1.246888        -1.913248
