19
Iteration:  4957
 C        -0.126159         0.164407        -0.122480
 C         1.394850         0.023017        -0.322699
 O         2.172659         0.525737         0.771137
 C         2.523581         0.978643        -0.545952
 C         3.519268        -0.187229        -0.900600
 O         4.576483        -0.611828         0.034997
 C         4.321793        -2.022261         0.216727
 C         2.736421        -2.263695         0.297736
 C         2.260867        -1.146904        -0.837160
 H        -0.602640         0.362424        -1.069812
 H        -0.527086        -0.961316         0.021513
 H        -0.572484         0.970401         0.557009
 H         2.793841         2.019401        -0.709210
 H         4.009620        -0.123731        -1.865594
 H         4.679780        -2.573196        -0.652034
 H         4.873055        -2.181376         1.096198
 H         2.468969        -3.301750         0.039452
 H         2.197440        -1.988761         1.247819
 H         1.991193        -1.715150        -1.712941
