19
Iteration:  1638
 C        -0.082578         0.512279        -0.183188
 C         1.346760         0.020949        -0.289497
 O         2.039689         0.221535         0.947760
 C         2.494457         0.909231        -0.214520
 C         3.469025        -0.074312        -0.895303
 O         4.591148        -0.567001        -0.039463
 C         4.358091        -1.973266         0.158996
 C         2.830444        -2.350387         0.013836
 C         2.298838        -1.274316        -0.902954
 H        -0.628832        -0.039550         0.590398
 H        -0.018032         1.631137         0.043040
 H        -0.443327         0.399102        -1.148637
 H         2.636726         2.019147        -0.312575
 H         3.828243         0.301326        -1.876494
 H         4.999057        -2.489867        -0.628288
 H         4.819950        -2.327734         1.140378
 H         2.822211        -3.359254        -0.472654
 H         2.297422        -2.583070         0.978131
 H         1.870262        -1.598695        -1.812399
