19
Iteration:  4434charge 0 multiplicity 1
 C         0.000478         0.363577        -0.192486
 C         1.405013        -0.024327        -0.325097
 O         2.012717         0.342114         0.872103
 C         2.549268         0.853542        -0.390926
 C         3.406706        -0.224150        -0.960395
 O         4.609132        -0.531329        -0.207743
 C         4.316017        -1.884107         0.318940
 C         2.793964        -2.248989         0.256625
 C         2.305122        -1.244206        -0.776561
 H        -0.585764        -0.098666        -1.066155
 H        -0.484960         0.130494         0.875513
 H        -0.123457         1.482515        -0.274893
 H         2.542211         1.933339        -0.516733
 H         3.704175        -0.072353        -1.993905
 H         4.910308        -2.549429        -0.411933
 H         4.555085        -2.168549         1.342797
 H         2.739877        -3.367240         0.093016
 H         2.411667        -2.144980         1.224370
 H         1.923990        -1.541792        -1.791484
