19
Iteration:   289
 C        -0.000145         0.102142        -0.445484
 C         1.483547        -0.013641        -0.116540
 O         2.371122         0.112338         1.156618
 C         2.656443         0.906664         0.031302
 C         3.487533        -0.023598        -0.974231
 O         4.588511        -0.657327        -0.357446
 C         3.995687        -1.747954         0.403686
 C         2.587443        -2.185658        -0.090033
 C         2.255631        -1.018502        -0.982582
 H        -0.370547         1.108267        -0.409635
 H        -0.148575        -0.268816        -1.503155
 H        -0.687573        -0.490192         0.192906
 H         2.703350         1.956063         0.269270
 H         3.736327         0.377827        -1.972704
 H         4.676551        -2.579271         0.210613
 H         3.935692        -1.464710         1.517090
 H         2.601100        -3.133269        -0.492290
 H         1.800513        -2.214397         0.747290
 H         1.683618        -1.142262        -1.979659
