19
Iteration:  2392charge 0 multiplicity 1
 C        -0.040481         0.225406        -0.537757
 C         1.428908         0.095878        -0.157487
 O         1.890474         0.419753         1.138609
 C         2.600539         0.965913        -0.079052
 C         3.508904        -0.075424        -0.790526
 O         4.687574        -0.741115        -0.398866
 C         4.330995        -2.151376        -0.048240
 C         2.754229        -2.186664         0.271071
 C         2.271812        -1.090188        -0.666353
 H        -0.032095         0.499774        -1.576400
 H        -0.431813        -0.762087        -0.513950
 H        -0.675976         1.015887        -0.150880
 H         2.609808         2.059812        -0.127108
 H         3.651239         0.331238        -1.808873
 H         4.475989        -2.671343        -1.020176
 H         4.967146        -2.399320         0.823050
 H         2.448842        -3.192990         0.167757
 H         2.480370        -1.939742         1.339072
 H         1.861412        -1.530605        -1.581985
