19
Iteration:   115
 C        -0.028284         0.186071        -0.257468
 C         1.494955         0.166275        -0.305988
 O         1.929031         0.060771         1.101128
 C         2.738733         0.855690        -0.001687
 C         3.531660        -0.043944        -0.919544
 O         4.594157        -0.718742        -0.452513
 C         4.140880        -1.815315         0.413537
 C         2.739145        -2.179545        -0.026385
 C         2.339617        -0.985529        -0.979426
 H        -0.502284         1.116216         0.206457
 H        -0.518916        -0.106860        -1.270388
 H        -0.278007        -0.693235         0.459639
 H         2.776740         1.909239         0.226092
 H         3.726223         0.419971        -1.898613
 H         4.850041        -2.640600         0.401143
 H         4.137946        -1.375301         1.441217
 H         2.707010        -3.166169        -0.684592
 H         2.016440        -2.193007         0.957186
 H         2.097491        -1.284817        -2.023450
