19
Iteration:  4096
 C        -0.062634         0.130993        -0.338215
 C         1.428911        -0.060506        -0.066603
 O         2.179302         0.523283         0.984124
 C         2.580398         0.951957        -0.277393
 C         3.444930        -0.136409        -1.056241
 O         4.653926        -0.768276        -0.430339
 C         4.168527        -1.770463         0.569162
 C         2.803661        -2.308260         0.045795
 C         2.154493        -1.141484        -0.770476
 H        -0.124830        -0.187023        -1.424181
 H        -0.654216        -0.589909         0.237481
 H        -0.391454         1.173699        -0.156268
 H         2.763704         2.026352        -0.431314
 H         3.804812        -0.023358        -2.092126
 H         5.038394        -2.330054         0.919479
 H         3.875049        -1.281226         1.494474
 H         2.848072        -3.201987        -0.642735
 H         2.376831        -2.550792         1.000666
 H         1.779186        -1.434585        -1.766058
