19
Iteration:  1758
 C        -0.148185         0.212812        -0.419675
 C         1.400169         0.078391        -0.257764
 O         1.969969         0.359104         1.018763
 C         2.622719         0.977471        -0.070284
 C         3.514572        -0.033390        -0.746636
 O         4.620506        -0.686216        -0.160513
 C         4.283003        -2.131129        -0.122708
 C         2.833063        -2.245576         0.143432
 C         2.314985        -1.063946        -0.737802
 H        -0.599997        -0.597221         0.273691
 H        -0.466087         1.267590        -0.023288
 H        -0.417121        -0.040836        -1.447691
 H         2.659574         2.037332        -0.026991
 H         3.854837         0.515171        -1.637606
 H         4.526375        -2.524906        -1.103972
 H         4.974414        -2.691175         0.545513
 H         2.454062        -3.269673         0.092113
 H         2.479783        -1.931156         1.152529
 H         2.103867        -1.395319        -1.734797
