19
Iteration:  3449charge 0 multiplicity 1
 C         0.042009        -0.018181        -0.186183
 C         1.482727         0.072782        -0.130470
 O         2.332583         0.482749         0.978714
 C         2.617575         1.056827        -0.331225
 C         3.494198        -0.174689        -1.147781
 O         4.494134        -0.856700        -0.442767
 C         4.013800        -1.682049         0.700207
 C         2.711737        -2.284780         0.043856
 C         2.232026        -1.110680        -0.863311
 H        -0.379824        -0.017905        -1.155763
 H        -0.300681        -1.001664         0.203992
 H        -0.310099         0.827675         0.393252
 H         2.625034         2.114357        -0.543896
 H         3.811362         0.047520        -2.147344
 H         4.838364        -2.380755         0.917999
 H         3.792851        -0.933240         1.525353
 H         3.067775        -3.210789        -0.461139
 H         1.861042        -2.789615         0.613003
 H         1.510010        -1.312053        -1.673420
