19
Iteration:  4879
 C        -0.025313         0.195007        -0.507415
 C         1.422104         0.044929        -0.146448
 O         2.008065         0.604745         0.982193
 C         2.611000         0.934747        -0.369421
 C         3.352975        -0.197217        -0.890662
 O         4.568676        -0.628711        -0.237996
 C         4.383235        -2.015133         0.100521
 C         2.863460        -2.239496         0.389018
 C         2.211023        -1.268539        -0.640478
 H        -0.020947        -0.169022        -1.562006
 H        -0.866730        -0.235366         0.254607
 H        -0.289556         1.284825        -0.559259
 H         2.802621         1.965557        -0.410811
 H         3.477821        -0.086755        -1.972585
 H         4.776084        -2.643507        -0.712189
 H         5.026959        -2.279213         0.942597
 H         2.573059        -3.339370         0.216729
 H         2.532705        -2.000687         1.417869
 H         1.797649        -1.883186        -1.461375
