19
Iteration:   768charge 0 multiplicity 1
 C         0.023245        -0.044464         0.003285
 C         1.474448         0.084543        -0.296865
 O         2.063239         0.359438         0.944468
 C         2.683706         1.024135        -0.225866
 C         3.516527        -0.024312        -0.909600
 O         4.645592        -0.838955        -0.341565
 C         4.029684        -1.863826         0.517477
 C         2.682514        -2.151494        -0.105906
 C         2.334102        -0.990116        -1.046083
 H        -0.013628        -1.077673         0.595732
 H        -0.552637         0.682650         0.604815
 H        -0.528545        -0.243392        -0.999823
 H         2.787261         2.057165        -0.036763
 H         4.065005         0.362500        -1.757573
 H         4.621699        -2.754395         0.487365
 H         3.882247        -1.481445         1.617647
 H         2.592397        -3.075387        -0.631745
 H         1.744186        -2.208044         0.540682
 H         1.999835        -1.330881        -2.039793
