19
Iteration:   712
 C         0.080076         0.151351        -0.160017
 C         1.513367        -0.045573        -0.086260
 O         2.284731         0.401636         1.022411
 C         2.617320         0.962864        -0.304739
 C         3.457166        -0.146553        -1.044962
 O         4.401621        -0.639206        -0.201753
 C         4.012228        -1.816243         0.505666
 C         2.812858        -2.390060        -0.212419
 C         2.252109        -1.074316        -0.909387
 H        -0.602916        -0.784759         0.034623
 H        -0.250012         0.952304         0.567575
 H        -0.151900         0.538910        -1.192152
 H         2.537613         2.053178        -0.305051
 H         3.948479         0.081452        -1.994812
 H         4.904608        -2.499444         0.505987
 H         3.796213        -1.547094         1.576948
 H         3.100417        -2.972078        -1.072506
 H         1.975790        -2.908183         0.379791
 H         1.685644        -1.140711        -1.806087
