19
Iteration:  3411
 C        -0.074036         0.110859         0.003764
 C         1.442819         0.010297        -0.186272
 O         2.271942         0.682048         0.848239
 C         2.593119         0.976366        -0.500667
 C         3.502952        -0.224048        -1.067054
 O         4.556085        -0.714974        -0.181063
 C         4.057539        -1.868572         0.619195
 C         2.806358        -2.495419        -0.137976
 C         2.232901        -1.082273        -0.826424
 H        -0.709982         0.531776        -0.831868
 H        -0.469513        -0.733995         0.558141
 H        -0.162728         0.906394         0.786539
 H         2.484677         2.034691        -0.843947
 H         3.982622        -0.067236        -2.069105
 H         4.926798        -2.538367         0.749108
 H         3.807833        -1.554796         1.601808
 H         3.111289        -3.079195        -1.001940
 H         2.147817        -2.978488         0.542972
 H         1.762537        -1.442466        -1.751542
