19
Iteration:  2662
 C        -0.075825         0.163212        -0.298825
 C         1.451766         0.050166        -0.137619
 O         2.028656         0.421895         1.094859
 C         2.615843         0.965434        -0.055367
 C         3.523364        -0.046307        -0.875136
 O         4.678703        -0.843973        -0.510741
 C         4.166810        -1.991805         0.281558
 C         2.668138        -2.238933         0.063377
 C         2.359270        -0.993617        -0.911137
 H        -0.339543        -0.600085        -1.097432
 H        -0.518220        -0.112347         0.613939
 H        -0.575056         1.123185        -0.624881
 H         2.800750         2.071329        -0.068857
 H         4.005756         0.549743        -1.705189
 H         4.667266        -2.904672        -0.078794
 H         4.467983        -1.779087         1.350058
 H         2.521821        -3.240956        -0.431179
 H         2.047864        -2.056642         0.975700
 H         1.957958        -1.525926        -1.808601
