19
Iteration:  4983charge 0 multiplicity 1
 C         0.025341         0.157247        -0.219559
 C         1.498407        -0.045710        -0.243023
 O         2.204616         0.479364         0.947433
 C         2.545572         0.909444        -0.458867
 C         3.441632        -0.221532        -1.037890
 O         4.437898        -0.558581        -0.081947
 C         4.191505        -1.945459         0.310411
 C         2.781576        -2.187147         0.218061
 C         2.291726        -1.177028        -0.867227
 H        -0.496483         0.131207        -1.237730
 H        -0.461665        -0.600676         0.268582
 H        -0.214983         1.093412         0.258545
 H         2.668638         1.998661        -0.776140
 H         3.873218        -0.077025        -2.042245
 H         4.831549        -2.635847        -0.245456
 H         4.462153        -1.908274         1.402582
 H         2.547383        -3.201673        -0.082104
 H         2.245436        -1.944957         1.124418
 H         1.819493        -1.787736        -1.663235
