19
Iteration:    62charge 0 multiplicity 1
 C         0.063797         0.430764        -0.479022
 C         1.404589        -0.017176        -0.070277
 O         2.071858         0.308506         1.185257
 C         2.602496         0.899354        -0.025368
 C         3.347348        -0.127695        -0.884719
 O         4.529943        -0.627186        -0.399597
 C         4.265222        -1.845704         0.365325
 C         2.934816        -2.422535        -0.190353
 C         2.174058        -1.210959        -0.801443
 H        -0.187211         1.329130         0.074007
 H         0.102038         0.709225        -1.554123
 H        -0.746349        -0.306474        -0.310086
 H         2.660689         1.967806         0.072487
 H         3.478092         0.259276        -1.923019
 H         5.102290        -2.555777         0.121376
 H         4.238138        -1.580108         1.425369
 H         3.105200        -3.132676        -1.071921
 H         2.328637        -2.938964         0.636926
 H         1.642060        -1.459925        -1.725727
