19
Iteration:  3729
 C        -0.121944         0.186975        -0.076381
 C         1.409210         0.006291        -0.204853
 O         2.180107         0.433068         0.938334
 C         2.562663         0.970766        -0.328450
 C         3.480140        -0.121039        -1.041062
 O         4.639060        -0.794715        -0.343683
 C         4.047812        -1.775826         0.625541
 C         2.863469        -2.334480        -0.085173
 C         2.313131        -1.109938        -0.915787
 H        -0.705375         0.043684        -0.999804
 H        -0.385787        -0.438001         0.718819
 H        -0.312252         1.163760         0.389804
 H         2.785634         1.960088        -0.701058
 H         3.925586         0.135928        -2.013985
 H         4.857158        -2.445429         0.990508
 H         3.673541        -1.352753         1.578173
 H         3.162461        -3.244725        -0.643482
 H         2.187169        -2.782450         0.657274
 H         1.919296        -1.457150        -1.910296
