19
Iteration:  4352charge 0 multiplicity 1
 C        -0.082702         0.104615        -0.254187
 C         1.431603         0.101450        -0.153543
 O         2.170306         0.514119         0.974088
 C         2.646933         0.941378        -0.353525
 C         3.393912        -0.195074        -0.978856
 O         4.606804        -0.825981        -0.474955
 C         4.178511        -1.720495         0.625854
 C         2.764451        -2.293193         0.068940
 C         2.296516        -1.209311        -0.834818
 H        -0.478441         0.391690        -1.239550
 H        -0.353428        -1.004347        -0.073322
 H        -0.578649         0.777292         0.510564
 H         2.787810         2.030343        -0.392467
 H         3.674337         0.241166        -1.974233
 H         5.081487        -2.337187         0.867698
 H         3.897862        -1.154457         1.580320
 H         3.032720        -3.147461        -0.564959
 H         1.993884        -2.546880         0.909849
 H         1.826804        -1.344760        -1.781848
