19
Iteration:  2113
 C        -0.022168         0.357751        -0.467962
 C         1.341916         0.086877        -0.018492
 O         2.054074         0.426883         1.166976
 C         2.549731         0.901708        -0.143441
 C         3.344307        -0.161341        -0.909941
 O         4.517597        -0.618079        -0.127314
 C         4.433069        -1.994602         0.060466
 C         2.919023        -2.391818        -0.104183
 C         2.233510        -1.167956        -0.731885
 H        -0.819335        -0.367153        -0.241987
 H        -0.378251         1.364120        -0.097251
 H         0.089484         0.198121        -1.556860
 H         2.675469         1.949566        -0.036996
 H         3.652116         0.160907        -1.906471
 H         5.048567        -2.470295        -0.906868
 H         4.908870        -2.237942         1.062516
 H         2.828348        -3.222685        -0.882296
 H         2.320865        -2.759076         0.743466
 H         1.791559        -1.448824        -1.728111
