19
Iteration:  2464
 C        -0.086660         0.526557        -0.287552
 C         1.340517        -0.002637        -0.231073
 O         2.080820         0.306326         0.966026
 C         2.579015         0.864848        -0.234588
 C         3.417089        -0.151935        -0.945690
 O         4.605464        -0.684681        -0.251181
 C         4.437974        -1.938203         0.325148
 C         2.817252        -2.269975         0.166703
 C         2.191209        -1.251726        -0.878411
 H        -0.270681         1.413503        -1.018467
 H        -0.799060        -0.271286        -0.610085
 H        -0.416035         0.933687         0.704438
 H         2.683928         1.914776        -0.328247
 H         3.727116         0.241365        -1.942634
 H         4.974332        -2.686668        -0.263161
 H         4.816415        -1.919564         1.347229
 H         2.594120        -3.358573        -0.192122
 H         2.203441        -2.228217         1.072536
 H         2.012086        -1.644866        -1.904790
