19
Iteration:  2091
 C         0.013690         0.237741        -0.475435
 C         1.471546        -0.033111        -0.110591
 O         2.037860         0.427899         1.153970
 C         2.552515         0.987652        -0.128992
 C         3.435651        -0.047693        -0.790336
 O         4.534427        -0.599834        -0.110578
 C         4.301832        -2.059546        -0.087949
 C         2.801672        -2.345820         0.020583
 C         2.278124        -1.161198        -0.785254
 H        -0.739648        -0.537690        -0.270597
 H        -0.271708         1.036075         0.263396
 H        -0.151800         0.449236        -1.552710
 H         2.392576         2.007441        -0.354760
 H         3.624129         0.270055        -1.824242
 H         4.829740        -2.467430        -1.067998
 H         4.801792        -2.334105         0.879986
 H         2.436308        -3.302370        -0.461939
 H         2.664051        -2.365526         1.105938
 H         1.859458        -1.267962        -1.820256
