19
Iteration:    33charge 0 multiplicity 1
 C        -0.130155         0.514310        -0.280280
 C         1.342727         0.039131        -0.170527
 O         1.924996         0.377430         1.135096
 C         2.491641         0.864478        -0.138673
 C         3.493049        -0.182269        -0.853615
 O         4.682872        -0.745156        -0.397484
 C         4.286293        -1.876233         0.417444
 C         2.986636        -2.418171        -0.232915
 C         2.317117        -1.180804        -0.824019
 H        -0.180792         1.236546         0.503067
 H        -0.425808         1.008405        -1.181177
 H        -0.812620        -0.273096        -0.043259
 H         2.534325         1.942084        -0.079422
 H         3.691370         0.088117        -1.895604
 H         5.072693        -2.655042         0.296724
 H         4.256578        -1.556581         1.450487
 H         3.233512        -2.992660        -1.077728
 H         2.389938        -2.996470         0.318807
 H         1.927899        -1.379425        -1.822903
