19
Iteration:   622charge 0 multiplicity 1
 C        -0.056327         0.205555        -0.511059
 C         1.497908         0.011636        -0.094005
 O         2.305885         0.155066         1.182913
 C         2.630884         0.944716        -0.027515
 C         3.391920        -0.036299        -0.956467
 O         4.555407        -0.731141        -0.447086
 C         4.094336        -1.826630         0.410556
 C         2.748131        -2.243795        -0.017723
 C         2.256717        -1.010854        -0.899819
 H        -0.775820         0.054780         0.340315
 H        -0.265927         1.281262        -0.821745
 H        -0.242764        -0.442096        -1.394677
 H         2.562103         2.029556         0.145708
 H         3.494331         0.481114        -1.919173
 H         4.927792        -2.662049         0.339172
 H         4.038922        -1.494399         1.409452
 H         2.732906        -3.263163        -0.492195
 H         2.085347        -2.364004         0.857262
 H         1.773585        -1.274747        -1.806531
