19
Iteration:  2112
 C        -0.010823         0.356547        -0.462025
 C         1.336534         0.081257        -0.024189
 O         2.056689         0.432855         1.160047
 C         2.548087         0.904755        -0.133372
 C         3.348464        -0.155069        -0.907318
 O         4.518263        -0.619637        -0.127642
 C         4.434223        -1.992453         0.056272
 C         2.914221        -2.392223        -0.102563
 C         2.223817        -1.169742        -0.733752
 H        -0.799631        -0.401425        -0.272619
 H        -0.378240         1.350367        -0.095134
 H         0.104401         0.183206        -1.566629
 H         2.656801         1.936978        -0.036414
 H         3.672833         0.182910        -1.884249
 H         5.039077        -2.465388        -0.923933
 H         4.938092        -2.259632         1.055530
 H         2.835863        -3.241410        -0.834916
 H         2.269595        -2.745877         0.723983
 H         1.784803        -1.472288        -1.702433
