19
Iteration:   475
 C        -0.087406         0.136350        -0.015647
 C         1.460511         0.045579        -0.223435
 O         2.130103         0.429727         1.048436
 C         2.572115         0.903443        -0.225367
 C         3.585013        -0.103013        -0.933879
 O         4.633869        -0.744617        -0.241051
 C         3.983482        -1.831845         0.517012
 C         2.791081        -2.334221        -0.347881
 C         2.344554        -1.060427        -0.997873
 H        -0.408577        -0.815105         0.276071
 H        -0.286382         0.883102         0.704677
 H        -0.518344         0.383562        -0.964374
 H         2.764771         1.992456        -0.396340
 H         3.910950         0.201229        -1.953721
 H         4.699213        -2.585901         0.708573
 H         3.576671        -1.353345         1.422966
 H         3.014285        -3.065201        -1.085380
 H         2.123339        -2.749492         0.448022
 H         1.977185        -1.253569        -2.077326
