19
Iteration:  3743charge 0 multiplicity 1
 C         0.009956         0.132188        -0.037387
 C         1.470564         0.053469        -0.302193
 O         2.212047         0.374425         0.959803
 C         2.624861         0.961085        -0.341909
 C         3.521058        -0.170922        -0.981662
 O         4.531256        -0.801248        -0.377386
 C         4.023878        -1.603384         0.664758
 C         2.788744        -2.355786        -0.058024
 C         2.281524        -1.151437        -0.946548
 H        -0.527254        -0.022095        -0.976820
 H        -0.388873        -0.818401         0.464822
 H        -0.301297         1.090948         0.392087
 H         2.419535         2.027664        -0.030995
 H         3.759981         0.135272        -2.043737
 H         4.804957        -2.320376         0.869346
 H         3.720834        -0.916489         1.475686
 H         3.040421        -3.085612        -0.805432
 H         1.921359        -2.592913         0.588931
 H         1.882667        -1.386528        -1.950160
