19
Iteration:  1185charge 0 multiplicity 1
 C        -0.044613         0.510072        -0.548094
 C         1.341264        -0.059917        -0.075013
 O         1.908277         0.259430         1.199015
 C         2.538688         0.777216         0.013708
 C         3.456496        -0.177436        -0.837300
 O         4.628054        -0.677021        -0.540829
 C         4.378049        -1.831446         0.265445
 C         2.941602        -2.339850         0.023274
 C         2.265938        -1.108240        -0.744052
 H        -0.956193         0.099451        -0.212408
 H        -0.056080         1.596080        -0.215233
 H        -0.098907         0.568390        -1.627315
 H         2.634303         1.847691        -0.040334
 H         3.596584         0.401631        -1.772362
 H         5.088854        -2.550967        -0.186570
 H         4.488147        -1.519088         1.288378
 H         2.936035        -3.212975        -0.796116
 H         2.363652        -2.769204         0.868664
 H         1.752389        -1.366232        -1.728422
