19
Iteration:  1350charge 0 multiplicity 1
 C        -0.069741         0.331572        -0.279156
 C         1.396534         0.000672        -0.186050
 O         2.069549         0.521058         1.099684
 C         2.569186         0.867428        -0.185721
 C         3.467296        -0.131704        -0.812023
 O         4.457551        -0.597380         0.030712
 C         4.334523        -2.062698        -0.020214
 C         2.877255        -2.389666        -0.184260
 C         2.291755        -1.136710        -0.769466
 H        -0.677625        -0.202957         0.430216
 H        -0.183511         1.393407        -0.043765
 H        -0.349414         0.165499        -1.359331
 H         2.495747         1.926567        -0.513727
 H         3.761267         0.188515        -1.848891
 H         4.777641        -2.496809        -0.959236
 H         4.841991        -2.321121         0.889797
 H         2.994709        -3.319372        -0.931749
 H         2.305546        -2.838960         0.635462
 H         2.055432        -1.343500        -1.842644
