19
Iteration:  1217
 C        -0.025051         0.166793        -0.373934
 C         1.451942         0.052343        -0.268524
 O         1.941127         0.204081         1.093266
 C         2.601695         1.010649         0.064722
 C         3.535811        -0.063923        -0.903798
 O         4.621688        -0.696586        -0.425648
 C         4.259567        -1.997814         0.257386
 C         2.736874        -2.201662         0.087006
 C         2.309210        -0.975211        -0.892747
 H        -0.485265        -0.510818         0.321034
 H        -0.269384         1.258396        -0.232381
 H        -0.407039        -0.128629        -1.347726
 H         2.645406         2.080938         0.191848
 H         3.800167         0.486201        -1.836947
 H         4.926643        -2.733833        -0.298092
 H         4.629267        -2.014021         1.273667
 H         2.515761        -3.268529        -0.397782
 H         2.257169        -2.211693         1.126740
 H         1.803541        -1.304898        -1.848231
