19
Iteration:  1803
 C        -0.041324         0.451411        -0.370238
 C         1.369415        -0.040116        -0.131363
 O         2.188333         0.313002         1.103449
 C         2.418029         0.900762        -0.188151
 C         3.426001        -0.059797        -0.851789
 O         4.480784        -0.621893        -0.047847
 C         4.399473        -1.963382         0.027088
 C         2.816508        -2.378510        -0.028228
 C         2.312157        -1.167428        -0.857314
 H        -0.959921         0.145043         0.276109
 H        -0.064798         1.619019        -0.371059
 H        -0.265990         0.135283        -1.404742
 H         2.253036         1.934161        -0.438521
 H         3.677759         0.090699        -1.900689
 H         4.962926        -2.561112        -0.668793
 H         4.940993        -2.139785         1.046935
 H         2.636132        -3.344518        -0.542849
 H         2.535163        -2.683801         1.013540
 H         2.036828        -1.498462        -1.806223
