19
Iteration:  4964
 C        -0.117055         0.145530        -0.148441
 C         1.354920        -0.008411        -0.296221
 O         2.231466         0.530299         0.756756
 C         2.560096         0.935755        -0.478205
 C         3.540102        -0.151625        -0.925744
 O         4.525765        -0.603318        -0.004609
 C         4.333632        -1.967069         0.275303
 C         2.673550        -2.251709         0.276463
 C         2.292983        -1.197635        -0.850545
 H        -0.499801         0.346258        -1.186480
 H        -0.641938        -0.743031         0.203199
 H        -0.393752         0.906760         0.548010
 H         2.483010         2.008931        -0.561535
 H         3.971393        -0.181771        -1.975019
 H         4.755576        -2.584168        -0.585216
 H         4.944465        -2.274334         1.203188
 H         2.330163        -3.321604         0.041316
 H         2.269234        -1.888761         1.199783
 H         1.874288        -1.478543        -1.876737
