19
Iteration:  4389
 C        -0.011587         0.127934        -0.317803
 C         1.452283        -0.012521        -0.083719
 O         2.182083         0.520034         0.991047
 C         2.581224         0.923188        -0.428932
 C         3.427129        -0.190774        -0.950456
 O         4.597480        -0.648934        -0.382419
 C         4.244439        -1.875367         0.465984
 C         2.724299        -2.290953         0.134220
 C         2.221894        -1.115701        -0.763181
 H        -0.187829         0.055137        -1.443264
 H        -0.607240        -0.817509         0.127414
 H        -0.488328         1.099596        -0.005234
 H         2.516271         2.016381        -0.536285
 H         3.631665         0.067559        -1.999491
 H         4.856479        -2.803652         0.296053
 H         4.438086        -1.446670         1.455951
 H         2.616440        -3.336667        -0.242991
 H         2.057294        -2.348522         0.965238
 H         1.887992        -1.535427        -1.753735
