19
Iteration:  3794
 C        -0.052888         0.100322        -0.226287
 C         1.420823         0.012990        -0.237962
 O         2.240277         0.383840         0.894580
 C         2.580820         1.008872        -0.298040
 C         3.442681        -0.136130        -0.969827
 O         4.604920        -0.719343        -0.303901
 C         4.212970        -1.822180         0.478817
 C         2.718488        -2.245202         0.102895
 C         2.212685        -1.131900        -0.828071
 H        -0.417501         0.389810        -1.239812
 H        -0.604082        -0.766889         0.045809
 H        -0.279427         0.911454         0.492118
 H         2.483882         2.127950        -0.333550
 H         3.639841         0.200024        -1.996800
 H         4.870235        -2.734638         0.387037
 H         4.337181        -1.469212         1.540668
 H         2.936653        -3.215196        -0.417832
 H         2.009110        -2.378560         0.944410
 H         1.943592        -1.468092        -1.861287
