19
Iteration:  1722
 C         0.033955         0.091085        -0.450605
 C         1.449802         0.069190        -0.147589
 O         1.865012         0.489790         1.126183
 C         2.562086         1.002690        -0.024987
 C         3.592526        -0.058666        -0.788163
 O         4.633090        -0.771568        -0.261118
 C         4.236422        -2.174648        -0.060837
 C         2.788632        -2.167586         0.115063
 C         2.308883        -1.003737        -0.834957
 H        -0.216468        -1.009029        -0.287189
 H        -0.661392         0.640673         0.269036
 H        -0.356182         0.341366        -1.515834
 H         2.448756         2.121878        -0.153553
 H         3.892233         0.493676        -1.705976
 H         4.431414        -2.706886        -0.998286
 H         4.765924        -2.548732         0.737105
 H         2.526829        -3.238357         0.056101
 H         2.737090        -1.752840         1.089424
 H         1.656779        -1.258951        -1.740240
