19
Iteration:  1706
 C        -0.038294         0.064733        -0.487480
 C         1.434450         0.085099        -0.216625
 O         1.995996         0.432433         1.128666
 C         2.679142         1.025006        -0.025550
 C         3.414710        -0.049918        -0.792500
 O         4.602729        -0.700439        -0.249061
 C         4.317979        -2.099057        -0.071626
 C         2.703361        -2.211143         0.133665
 C         2.302213        -1.060114        -0.745656
 H        -0.446423        -0.919825        -0.508786
 H        -0.624562         0.714654         0.132117
 H        -0.149029         0.592917        -1.402175
 H         2.863482         2.073948         0.041311
 H         3.583062         0.387856        -1.804327
 H         4.669962        -2.736328        -0.938052
 H         4.915248        -2.454509         0.887445
 H         2.188763        -3.164889        -0.175541
 H         2.343178        -2.117554         1.216630
 H         2.175707        -1.467736        -1.765617
