19
Iteration:  1805
 C        -0.068306         0.477688        -0.370126
 C         1.381876        -0.049254        -0.139439
 O         2.192543         0.318143         1.099396
 C         2.409528         0.907308        -0.193662
 C         3.422593        -0.076426        -0.838714
 O         4.486143        -0.607511        -0.058132
 C         4.398516        -1.984195         0.034700
 C         2.816156        -2.386572        -0.023421
 C         2.320642        -1.150452        -0.859037
 H        -0.888756         0.098521         0.274569
 H        -0.072515         1.567114        -0.287841
 H        -0.271787         0.076928        -1.387221
 H         2.206496         1.991229        -0.400645
 H         3.709958         0.069909        -1.903594
 H         5.034882        -2.573910        -0.644558
 H         4.945348        -2.148105         1.089264
 H         2.685452        -3.345714        -0.617367
 H         2.468583        -2.744829         1.000421
 H         2.012003        -1.546785        -1.814399
