19
Iteration:  4982
 C         0.009353         0.152471        -0.223594
 C         1.505223        -0.053445        -0.243608
 O         2.208614         0.482050         0.943374
 C         2.549057         0.912078        -0.457627
 C         3.449583        -0.224495        -1.042553
 O         4.437073        -0.554967        -0.076215
 C         4.194968        -1.954035         0.311027
 C         2.775963        -2.182923         0.210332
 C         2.290728        -1.177361        -0.858283
 H        -0.532231         0.176425        -1.216193
 H        -0.496285        -0.639398         0.291712
 H        -0.188494         1.114915         0.278371
 H         2.647147         2.000071        -0.803780
 H         3.871106        -0.052968        -2.027696
 H         4.820165        -2.622358        -0.264430
 H         4.460368        -1.925091         1.371378
 H         2.538504        -3.185684        -0.048246
 H         2.245990        -1.922026         1.140882
 H         1.868629        -1.767976        -1.667305
