19
Iteration:  2509
 C         0.017130        -0.021134        -0.205835
 C         1.522412         0.048811        -0.137907
 O         2.266079         0.543959         1.006660
 C         2.645146         1.001507        -0.287934
 C         3.505644        -0.138750        -0.911757
 O         4.565498        -0.766251        -0.316809
 C         4.044890        -1.896699         0.461332
 C         2.617340        -2.254578        -0.051062
 C         2.241893        -1.044370        -0.950805
 H        -0.359240         0.321598        -1.255764
 H        -0.141484        -1.100950        -0.111551
 H        -0.484328         0.620851         0.611047
 H         2.659444         2.099664        -0.463694
 H         3.838370         0.251148        -1.893173
 H         4.686125        -2.702574         0.207808
 H         4.037536        -1.722110         1.551989
 H         2.650074        -3.362227        -0.383727
 H         1.942027        -2.419092         0.860773
 H         1.605602        -1.090589        -1.880110
