19
Iteration:    69charge 0 multiplicity 1
 C         0.023035         0.440196        -0.528783
 C         1.414368        -0.020878        -0.080556
 O         2.160713         0.265707         1.275681
 C         2.546321         0.884795        -0.037906
 C         3.349122        -0.120944        -0.904911
 O         4.533561        -0.647370        -0.407047
 C         4.228169        -1.802245         0.315815
 C         2.865780        -2.442508        -0.164945
 C         2.266378        -1.143164        -0.794932
 H        -0.392169         1.406771        -0.022050
 H         0.015654         0.500501        -1.659075
 H        -0.713459        -0.390160        -0.309200
 H         2.636881         2.003197        -0.008110
 H         3.462142         0.305245        -1.899296
 H         5.076371        -2.408453         0.175224
 H         4.106516        -1.617306         1.428435
 H         3.098865        -3.256304        -0.901951
 H         2.214316        -2.839263         0.745995
 H         1.932133        -1.475899        -1.806664
