19
Iteration:  1936
 C        -0.094562         0.306461        -0.091134
 C         1.365983        -0.038241        -0.154652
 O         2.117784         0.235512         1.056561
 C         2.465960         0.928660        -0.154721
 C         3.566836        -0.084011        -1.019610
 O         4.657304        -0.754557        -0.303409
 C         4.084785        -1.834291         0.530978
 C         2.859834        -2.267626        -0.268222
 C         2.343162        -1.088674        -1.024126
 H        -0.586398        -0.481354         0.530354
 H        -0.102202         1.268540         0.368139
 H        -0.463634         0.553270        -1.121190
 H         2.501279         2.045404        -0.164153
 H         4.003580         0.460467        -1.870880
 H         4.818763        -2.536740         0.774680
 H         3.766941        -1.272494         1.477384
 H         3.255214        -2.942273        -1.072069
 H         2.233381        -2.821386         0.462352
 H         1.933126        -1.378060        -1.983758
