19
Iteration:  4497charge 0 multiplicity 1
 C         0.016574         0.030483        -0.415820
 C         1.467597         0.054401        -0.239772
 O         2.046081         0.744915         0.965969
 C         2.593295         1.017541        -0.354622
 C         3.423668        -0.190141        -0.866518
 O         4.563519        -0.648375        -0.171444
 C         4.380552        -2.107977         0.031779
 C         2.747143        -2.310024         0.354044
 C         2.168304        -1.175635        -0.615600
 H        -0.138988        -0.136024        -1.476597
 H        -0.450752        -0.843737         0.082959
 H        -0.444284         0.890236        -0.019698
 H         2.585779         2.066525        -0.636334
 H         3.569174         0.214559        -1.903871
 H         4.645170        -2.650956        -0.880012
 H         5.061307        -2.391049         0.839978
 H         2.511813        -3.343597         0.069917
 H         2.479876        -1.905443         1.329492
 H         1.723408        -1.583608        -1.555143
