19
Iteration:   815
 C        -0.008387         0.372383        -0.311564
 C         1.367923        -0.020015         0.007484
 O         2.214548         0.240817         1.083700
 C         2.525601         0.865415        -0.219973
 C         3.421975        -0.125597        -0.969579
 O         4.564836        -0.677279        -0.296132
 C         4.234298        -1.804530         0.457230
 C         2.900164        -2.345294        -0.167116
 C         2.185774        -1.119071        -0.902785
 H        -0.952373        -0.041611         0.158367
 H        -0.125056         1.502523        -0.252366
 H        -0.130219         0.242483        -1.425771
 H         2.509511         1.991913        -0.213004
 H         3.668912         0.234662        -1.997806
 H         5.074599        -2.465630         0.388383
 H         3.976372        -1.579739         1.572199
 H         2.937933        -3.138922        -0.974887
 H         2.342740        -2.802647         0.585658
 H         1.568220        -1.178974        -1.882108
