19
Iteration:   200charge 0 multiplicity 1
 C         0.045150         0.224580        -0.280507
 C         1.507303        -0.023554         0.032788
 O         2.305449         0.420560         1.121633
 C         2.535288         0.899184        -0.254931
 C         3.411663        -0.114428        -1.016252
 O         4.418622        -0.597263        -0.064898
 C         4.054190        -1.935469         0.444252
 C         2.920322        -2.386189        -0.497485
 C         2.212369        -1.071020        -0.825351
 H        -0.431423         1.091025         0.241840
 H        -0.016998         0.374587        -1.372093
 H        -0.525201        -0.674607        -0.090011
 H         2.434769         1.978220        -0.308865
 H         3.799342         0.130007        -2.008431
 H         4.912209        -2.570964         0.422290
 H         3.667354        -1.736195         1.499847
 H         3.366462        -2.729391        -1.373283
 H         2.285534        -3.195314        -0.119415
 H         1.554285        -1.283649        -1.736053
