19
Iteration:   354
 C        -0.201194         0.634563        -0.209784
 C         1.266869         0.025845        -0.140040
 O         1.765281         0.363062         1.127066
 C         2.585103         0.863319        -0.130359
 C         3.527642        -0.195686        -0.891215
 O         4.703159        -0.796442        -0.426110
 C         4.346286        -1.895758         0.375584
 C         3.035299        -2.429115        -0.180561
 C         2.386680        -1.195897        -0.902936
 H        -0.375405         1.017962         0.725289
 H        -0.287668         1.367310        -0.994495
 H        -0.823321        -0.157597        -0.376556
 H         2.630675         1.936582        -0.285149
 H         3.921511         0.225108        -1.829824
 H         5.210539        -2.552884         0.327798
 H         4.248454        -1.614743         1.487625
 H         3.125681        -3.231685        -0.767653
 H         2.352471        -2.591429         0.701803
 H         1.998191        -1.492595        -1.976988
