19
Iteration:   989
 C        -0.095762         0.352046         0.018075
 C         1.387942         0.024997        -0.172555
 O         2.169595         0.701272         0.973665
 C         2.481135         0.913409        -0.459473
 C         3.466328        -0.199060        -0.810312
 O         4.452961        -0.605131         0.095981
 C         4.281357        -2.162681         0.228789
 C         2.938683        -2.539335        -0.459624
 C         2.290299        -1.130276        -0.850184
 H        -0.369182        -0.172159         0.972689
 H        -0.151568         1.450042         0.378416
 H        -0.876064         0.196242        -0.784875
 H         2.626128         1.965415        -0.731333
 H         3.840685         0.057050        -1.823618
 H         5.198057        -2.610730        -0.041251
 H         4.185770        -2.414291         1.360855
 H         3.106085        -3.124358        -1.394517
 H         2.402237        -3.056356         0.253199
 H         1.936553        -1.258052        -1.954156
