19
Iteration:  2003
 C        -0.058274         0.227641        -0.408250
 C         1.401883        -0.017384        -0.080054
 O         2.152136         0.400520         1.140728
 C         2.524606         0.915342        -0.107898
 C         3.435719        -0.102210        -0.796045
 O         4.567061        -0.596221        -0.179424
 C         4.332310        -2.056652         0.076208
 C         2.764462        -2.309930        -0.101797
 C         2.289473        -1.060284        -0.849417
 H        -0.690232        -0.504098         0.110875
 H        -0.437278         1.237602        -0.288793
 H        -0.069665         0.082963        -1.525864
 H         2.476374         1.970595        -0.009590
 H         3.699325         0.202390        -1.832863
 H         4.978018        -2.559922        -0.572004
 H         4.508577        -2.150602         1.176417
 H         2.442063        -3.052618        -0.872958
 H         2.167321        -2.246064         0.819881
 H         2.002794        -1.335713        -1.886313
