19
Iteration:  3536charge 0 multiplicity 1
 C        -0.072315         0.444404        -0.520703
 C         1.359471         0.030987        -0.097005
 O         1.999264         0.469061         1.092045
 C         2.503354         0.819984        -0.213215
 C         3.357092        -0.237475        -1.022540
 O         4.625172        -0.644125        -0.396725
 C         4.415618        -1.936651         0.200471
 C         2.955683        -2.286312         0.282703
 C         2.248831        -1.287825        -0.651220
 H        -0.229114         0.221366        -1.563107
 H        -0.949425        -0.014438         0.009671
 H        -0.046801         1.525221        -0.339885
 H         2.571842         1.861300        -0.391163
 H         3.511969        -0.026245        -2.065884
 H         5.065787        -2.731483        -0.165300
 H         4.588566        -1.711924         1.272274
 H         2.909436        -3.333109        -0.107748
 H         2.485730        -2.235972         1.330112
 H         1.749344        -1.648962        -1.566419
