19
Iteration:  4176charge 0 multiplicity 1
 C         0.034395         0.235576        -0.290396
 C         1.430169        -0.073950        -0.192432
 O         2.226134         0.295481         0.953183
 C         2.639656         0.911943        -0.306712
 C         3.396741        -0.119623        -1.087740
 O         4.527354        -0.657919        -0.364154
 C         4.152893        -1.677056         0.601343
 C         2.795117        -2.251232         0.146290
 C         2.188248        -1.236308        -0.862908
 H        -0.274400         0.400480        -1.344353
 H        -0.633681        -0.512265         0.181310
 H        -0.137760         1.161235         0.297184
 H         2.686187         1.998032        -0.421233
 H         3.662176         0.029912        -2.152347
 H         4.953829        -2.391423         0.386744
 H         4.093403        -1.332894         1.630537
 H         2.794123        -3.263646        -0.194632
 H         2.198027        -2.300499         1.078926
 H         1.822163        -1.795463        -1.707440
