19
Iteration:   431charge 0 multiplicity 1
 C        -0.054935        -0.001315        -0.212911
 C         1.475847         0.136669        -0.256698
 O         2.224459         0.252895         1.061303
 C         2.666608         0.968769        -0.130977
 C         3.530884        -0.058439        -0.940877
 O         4.623677        -0.775623        -0.319721
 C         4.038648        -1.860992         0.414397
 C         2.610265        -2.171562        -0.087504
 C         2.295800        -0.966978        -0.963410
 H        -0.122011        -0.470494         0.713704
 H        -0.654427         0.877156        -0.299320
 H        -0.287707        -0.698868        -0.955853
 H         2.626926         2.066760         0.054545
 H         4.037093         0.374417        -1.822303
 H         4.762338        -2.610948         0.352441
 H         3.840332        -1.486189         1.447449
 H         2.634120        -3.047721        -0.637478
 H         1.816849        -2.281166         0.714295
 H         1.891200        -1.245215        -2.024754
