19
Iteration:   906charge 0 multiplicity 1
 C        -0.005027         0.185483        -0.274436
 C         1.502523         0.156969        -0.284529
 O         1.997293         0.123145         1.071428
 C         2.709029         0.899666         0.001771
 C         3.450398        -0.114154        -0.965282
 O         4.601019        -0.783261        -0.521337
 C         4.181776        -1.848145         0.385194
 C         2.702279        -2.070388         0.074020
 C         2.304308        -1.017779        -0.917290
 H        -0.241718        -0.832476         0.002440
 H        -0.479976         0.835321         0.512062
 H        -0.401350         0.334026        -1.259864
 H         2.763067         1.929218         0.275713
 H         3.598735         0.369555        -1.949718
 H         4.994956        -2.688744         0.157587
 H         4.221520        -1.515616         1.414110
 H         2.388361        -3.111411        -0.170352
 H         2.234826        -1.939003         1.107214
 H         2.069494        -1.456113        -1.859425
