19
Iteration:  3229
 C         0.017538         0.591741        -0.422129
 C         1.388673        -0.042291        -0.143284
 O         2.138032         0.369151         1.028216
 C         2.525301         0.790436        -0.260743
 C         3.296658        -0.254659        -1.040039
 O         4.537670        -0.699797        -0.494848
 C         4.317452        -1.758665         0.463969
 C         2.895108        -2.332343         0.196966
 C         2.249009        -1.312869        -0.680702
 H        -0.029318         1.130569        -1.385533
 H        -0.688548        -0.211683        -0.542563
 H        -0.258393         1.117719         0.464598
 H         2.502576         1.834288        -0.588918
 H         3.510987         0.113178        -2.025736
 H         5.265471        -2.303694         0.561506
 H         4.199003        -1.325029         1.481840
 H         3.156523        -3.274840        -0.303339
 H         2.451918        -2.549753         1.204689
 H         1.662733        -1.754968        -1.498488
