19
Iteration:  2693
 C        -0.054709         0.266349        -0.367561
 C         1.423783         0.144850        -0.247558
 O         2.022105         0.217559         1.061558
 C         2.705932         0.869480         0.027294
 C         3.450425        -0.154179        -0.958909
 O         4.633775        -0.744033        -0.494912
 C         4.235393        -1.943556         0.297812
 C         2.719727        -2.089817         0.212180
 C         2.289890        -1.063723        -0.892360
 H        -0.457125         0.094974        -1.381320
 H        -0.444906        -0.468151         0.285606
 H        -0.549602         1.146030         0.061109
 H         2.948464         1.973321         0.002553
 H         3.703666         0.426937        -1.894320
 H         4.727695        -2.809543        -0.250486
 H         4.717870        -1.778156         1.289988
 H         2.446974        -3.080901        -0.210399
 H         2.191849        -2.035644         1.142211
 H         1.841089        -1.732062        -1.691050
