19
Iteration:   941
 C        -0.063729         0.134672        -0.244776
 C         1.435330         0.030500        -0.131007
 O         2.334477         0.333544         1.047932
 C         2.590318         0.994141        -0.160751
 C         3.465583        -0.075982        -0.931439
 O         4.541405        -0.674673        -0.222697
 C         4.141481        -1.967392         0.266208
 C         2.674663        -2.269246        -0.101464
 C         2.271943        -1.035941        -0.895460
 H        -0.604338        -0.652391         0.307743
 H        -0.498646         1.082115        -0.056172
 H        -0.216748        -0.059223        -1.309558
 H         2.541075         2.080084        -0.300010
 H         3.730996         0.230725        -1.959806
 H         4.910163        -2.805744        -0.039585
 H         4.182685        -1.911807         1.351277
 H         2.448976        -3.226234        -0.560015
 H         2.163024        -2.073416         0.934223
 H         2.013427        -1.263902        -1.906475
