19
Iteration:  3941
 C        -0.031022         0.070236        -0.386449
 C         1.411387         0.036844        -0.203325
 O         1.927262         0.729029         1.028690
 C         2.608109         0.973553        -0.249387
 C         3.469196        -0.202063        -0.933931
 O         4.614566        -0.678180        -0.197463
 C         4.325355        -2.080153         0.119856
 C         2.835476        -2.221885         0.244694
 C         2.279620        -1.215394        -0.774547
 H        -0.236451         0.117272        -1.444364
 H        -0.649849        -0.716591         0.128652
 H        -0.380077         0.947347         0.138220
 H         2.533206         2.016905        -0.369645
 H         3.781581        -0.034590        -2.000636
 H         4.673207        -2.763983        -0.715273
 H         4.967148        -2.327391         0.973746
 H         2.619155        -3.289996        -0.028279
 H         2.350196        -2.008298         1.217813
 H         1.756793        -1.404852        -1.719612
