19
Iteration:  1616charge 0 multiplicity 1
 C        -0.205197         0.306614        -0.228231
 C         1.398162         0.071544        -0.238708
 O         2.065080         0.311450         1.024685
 C         2.658934         0.904960        -0.252775
 C         3.493010        -0.172585        -0.906147
 O         4.515080        -0.624570        -0.046855
 C         4.343579        -2.016672         0.153247
 C         2.825409        -2.282048        -0.064521
 C         2.275077        -1.055861        -0.888613
 H        -0.529925         0.015691         0.775007
 H        -0.267648         1.433274        -0.260094
 H        -0.674502        -0.169315        -1.027057
 H         2.817595         2.029772        -0.218390
 H         3.818090         0.103334        -1.927950
 H         5.126043        -2.621266        -0.407263
 H         4.633537        -2.217825         1.236079
 H         2.732907        -3.304315        -0.498051
 H         2.383484        -2.381485         0.976047
 H         2.067454        -1.279246        -1.903218
