19
Iteration:  1216charge 0 multiplicity 1
 C        -0.027445         0.177499        -0.384428
 C         1.450977         0.057671        -0.259406
 O         1.942208         0.207289         1.095025
 C         2.597450         1.014140         0.072245
 C         3.525297        -0.068492        -0.902010
 O         4.626482        -0.693922        -0.431751
 C         4.270866        -2.006286         0.261100
 C         2.748237        -2.209730         0.082787
 C         2.305058        -0.986792        -0.899457
 H        -0.517267        -0.504923         0.331848
 H        -0.264093         1.268195        -0.243401
 H        -0.423142        -0.108440        -1.364464
 H         2.627507         2.078014         0.201047
 H         3.787204         0.498710        -1.827425
 H         4.945427        -2.749907        -0.292348
 H         4.614715        -1.975246         1.293363
 H         2.508926        -3.260656        -0.379939
 H         2.240930        -2.218609         1.131714
 H         1.798157        -1.310348        -1.837913
