19
Iteration:  3885charge 0 multiplicity 1
 C        -0.027296         0.212073        -0.483303
 C         1.413953        -0.025803        -0.237967
 O         2.078489         0.491666         1.049658
 C         2.585729         0.809443        -0.242078
 C         3.417046        -0.146528        -0.839168
 O         4.561206        -0.587608        -0.136541
 C         4.323460        -2.019019        -0.040434
 C         2.812878        -2.078246         0.303053
 C         2.234863        -1.279028        -0.741982
 H        -0.406869        -0.370651        -1.285482
 H        -0.627393        -0.080680         0.419142
 H        -0.211816         1.271956        -0.591267
 H         2.486498         1.888142        -0.300853
 H         3.747842         0.022383        -1.885834
 H         4.652415        -2.680011        -0.942111
 H         4.978451        -2.353759         0.825630
 H         2.322757        -3.052170         0.248118
 H         2.694769        -1.573670         1.317681
 H         1.863077        -1.537289        -1.747065
