19
Iteration:  4335
 C        -0.117022         0.189624        -0.153271
 C         1.397100        -0.055218        -0.239604
 O         2.137733         0.430897         0.950845
 C         2.644439         0.890879        -0.322291
 C         3.556527        -0.218656        -1.056642
 O         4.675229        -0.810420        -0.420691
 C         4.095699        -1.605524         0.619694
 C         2.819433        -2.275203         0.052429
 C         2.201128        -1.106351        -0.832075
 H        -0.403730         0.531703        -1.152419
 H        -0.722924        -0.667024         0.106873
 H        -0.363994         0.858628         0.656066
 H         2.649192         1.994801        -0.426482
 H         3.798032        -0.039582        -2.096040
 H         4.676934        -2.483077         0.876153
 H         3.921713        -0.930701         1.427518
 H         3.120329        -3.144968        -0.557729
 H         2.194539        -2.562308         0.851844
 H         1.825555        -1.652667        -1.720976
