19
Iteration:  2079
 C        -0.025486         0.188848        -0.384361
 C         1.399049         0.017010        -0.178186
 O         1.999692         0.372637         1.107704
 C         2.506222         0.968515        -0.152112
 C         3.484878        -0.073499        -0.836170
 O         4.547353        -0.655704        -0.079071
 C         4.296478        -2.080665        -0.129387
 C         2.794790        -2.229112         0.066944
 C         2.390557        -1.042471        -0.756293
 H        -0.523620        -0.781610        -0.199138
 H        -0.419472         1.035466         0.216659
 H        -0.143692         0.625117        -1.416693
 H         2.580174         2.013205        -0.104267
 H         3.823299         0.208233        -1.827218
 H         4.678257        -2.596759        -1.167500
 H         4.914974        -2.640817         0.645674
 H         2.366753        -3.211576        -0.199836
 H         2.432076        -1.946546         1.071200
 H         2.238594        -1.485850        -1.749706
