19
Iteration:  1611charge 0 multiplicity 1
 C        -0.167272         0.250268        -0.219580
 C         1.421679         0.067390        -0.259629
 O         2.088985         0.347372         1.043626
 C         2.643465         0.926228        -0.203528
 C         3.497042        -0.118493        -0.913470
 O         4.507327        -0.668474        -0.047239
 C         4.333668        -2.015851         0.149250
 C         2.806854        -2.244130        -0.061617
 C         2.271736        -1.090263        -0.887428
 H        -0.530022        -0.022255         0.787444
 H        -0.256173         1.303228        -0.435801
 H        -0.647433        -0.235271        -1.157320
 H         2.839285         1.952145        -0.452138
 H         3.850075         0.215852        -1.902437
 H         5.091011        -2.562218        -0.430188
 H         4.463785        -2.209879         1.192937
 H         2.639312        -3.237793        -0.468184
 H         2.363308        -2.426194         0.890511
 H         1.820655        -1.271058        -1.928750
