19
Iteration:  2850
 C         0.003625         0.024547         0.083867
 C         1.525152         0.079657        -0.274256
 O         2.399087         0.352039         0.874501
 C         2.627396         1.022563        -0.469339
 C         3.558844        -0.115900        -1.062830
 O         4.506232        -0.738671        -0.181337
 C         3.895353        -1.753203         0.627882
 C         2.631826        -2.297087        -0.073618
 C         2.232351        -1.111894        -1.011828
 H        -0.171993         0.593944         0.982239
 H        -0.671229         0.325521        -0.738870
 H        -0.214420        -1.008796         0.284223
 H         2.509031         2.118505        -0.345934
 H         4.078808         0.240944        -1.985196
 H         4.750785        -2.433257         0.671781
 H         3.740636        -1.248110         1.626254
 H         3.047445        -3.025514        -0.759709
 H         1.768352        -2.587543         0.616375
 H         1.855010        -1.305214        -2.014365
