19
Iteration:   339
 C        -0.144741         0.538451        -0.291569
 C         1.332253         0.024419        -0.247269
 O         1.889841         0.349150         1.133518
 C         2.507838         0.912285        -0.006187
 C         3.497317        -0.099914        -0.882642
 O         4.758271        -0.806632        -0.497536
 C         4.331204        -1.921906         0.452066
 C         2.945509        -2.435366        -0.112397
 C         2.300225        -1.172336        -0.908447
 H        -0.253982         1.238484         0.604914
 H        -0.365901         1.120071        -1.180563
 H        -0.950353        -0.245016        -0.194922
 H         2.542518         2.008738         0.006857
 H         3.587340         0.490672        -1.808400
 H         5.095769        -2.679097         0.435856
 H         4.185510        -1.411339         1.383388
 H         3.152843        -3.265147        -0.953345
 H         2.369172        -2.965182         0.602036
 H         1.896300        -1.460716        -1.840060
