19
Iteration:  2718charge 0 multiplicity 1
 C         0.011611         0.423454        -0.395485
 C         1.409853        -0.048527        -0.129655
 O         2.081844         0.225598         1.093312
 C         2.566536         0.940819        -0.171176
 C         3.419328        -0.169726        -0.907546
 O         4.631052        -0.669501        -0.421154
 C         4.296618        -1.935754         0.257249
 C         2.763478        -2.230987         0.103313
 C         2.228270        -1.157498        -0.804176
 H        -0.067925         0.990981        -1.369018
 H        -0.871016        -0.213622        -0.363452
 H        -0.175634         1.118714         0.439824
 H         2.554791         2.008745        -0.312395
 H         3.606697         0.187945        -1.956994
 H         5.010881        -2.684605        -0.067407
 H         4.506302        -1.661077         1.342636
 H         2.429052        -3.269914        -0.054064
 H         2.338246        -2.032074         1.170376
 H         1.780223        -1.544943        -1.739893
