19
Iteration:  2945charge 0 multiplicity 1
 C         0.054239         0.349563        -0.375328
 C         1.430549        -0.028786        -0.106096
 O         2.137504         0.486362         1.114857
 C         2.550883         0.968807        -0.236798
 C         3.373865        -0.171858        -1.013896
 O         4.551119        -0.786132        -0.554188
 C         4.236679        -1.872971         0.474976
 C         2.857295        -2.356432         0.116619
 C         2.193718        -1.204482        -0.763226
 H        -0.709891        -0.539969        -0.221475
 H        -0.101760         1.072275         0.424660
 H        -0.173397         0.935320        -1.328011
 H         2.514240         2.039823        -0.470630
 H         3.628007        -0.000619        -2.075807
 H         4.977994        -2.704688         0.622667
 H         4.263135        -1.259582         1.410947
 H         2.947827        -3.251364        -0.529586
 H         2.317306        -2.451271         1.081358
 H         1.815150        -1.583960        -1.767480
