19
Iteration:  2860charge 0 multiplicity 1
 C         0.017310         0.088949         0.066437
 C         1.506794        -0.020736        -0.261869
 O         2.351677         0.412483         0.879277
 C         2.611991         0.981424        -0.409574
 C         3.533861        -0.103771        -1.065718
 O         4.559809        -0.666290        -0.157495
 C         3.973752        -1.759539         0.575517
 C         2.622401        -2.315067        -0.152058
 C         2.261285        -1.136667        -0.947257
 H        -0.042302         0.543582         1.057013
 H        -0.588709         0.670505        -0.630133
 H        -0.387480        -0.909392         0.129603
 H         2.561552         2.019034        -0.765188
 H         3.993168         0.079735        -2.083054
 H         4.563988        -2.636958         0.816430
 H         3.596944        -1.391072         1.592912
 H         2.641147        -3.232615        -0.688120
 H         1.776128        -2.684485         0.511420
 H         1.850343        -1.536724        -1.886735
