19
Iteration:  4949charge 0 multiplicity 1
 C        -0.127706         0.138433        -0.176793
 C         1.420610         0.084925        -0.335445
 O         2.083208         0.550015         0.830708
 C         2.567304         0.997153        -0.587406
 C         3.489179        -0.236342        -0.925505
 O         4.565760        -0.610932         0.050766
 C         4.264672        -2.067239         0.173774
 C         2.820686        -2.209714         0.271453
 C         2.273881        -1.179022        -0.744261
 H        -0.661436         0.462419        -1.071882
 H        -0.369949        -0.838706         0.196522
 H        -0.366309         0.782852         0.699694
 H         2.812168         2.091830        -0.886361
 H         3.925504        -0.045468        -1.897360
 H         4.678997        -2.637119        -0.672336
 H         4.784947        -2.452646         1.070350
 H         2.635029        -3.193873        -0.039988
 H         2.467893        -2.131182         1.331597
 H         2.065418        -1.718825        -1.665921
