19
Iteration:  2240
 C        -0.038106         0.111750        -0.149727
 C         1.470010        -0.025717        -0.146618
 O         2.135809         0.449240         1.084654
 C         2.639209         0.928034        -0.167327
 C         3.508063        -0.031744        -0.918630
 O         4.607259        -0.769826        -0.367348
 C         3.991861        -1.836044         0.486794
 C         2.765800        -2.388453        -0.315094
 C         2.349218        -1.000438        -0.867767
 H        -0.347690        -0.934829        -0.293906
 H        -0.424455         0.543600         0.788762
 H        -0.514114         0.788794        -0.921954
 H         2.614939         1.936691        -0.445551
 H         3.820286         0.328459        -1.929319
 H         4.749634        -2.607444         0.681206
 H         3.790699        -1.319632         1.483476
 H         3.114922        -3.025559        -1.146900
 H         1.954544        -2.872430         0.399100
 H         1.988772        -1.127636        -1.873839
