19
Iteration:  3203charge 0 multiplicity 1
 C        -0.073136         0.426601        -0.237012
 C         1.401863        -0.004297        -0.149441
 O         2.135415         0.452170         0.950360
 C         2.566011         0.843971        -0.377488
 C         3.433718        -0.278858        -1.028126
 O         4.659221        -0.771891        -0.497088
 C         4.186334        -1.728385         0.649749
 C         2.848446        -2.309832         0.078802
 C         2.169089        -1.269376        -0.769310
 H        -0.237275         0.936922        -1.244539
 H        -0.731531        -0.451400        -0.012317
 H        -0.232893         1.136018         0.604700
 H         2.714736         1.939034        -0.433737
 H         3.724148         0.073423        -2.047593
 H         5.095776        -2.379557         0.764196
 H         4.060349        -1.229885         1.646265
 H         3.376033        -3.045256        -0.555506
 H         2.390788        -2.763302         0.938052
 H         1.600720        -1.595470        -1.653243
