19
Iteration:  2022
 C        -0.004867         0.121384        -0.361091
 C         1.475332         0.035371        -0.180123
 O         1.978737         0.321980         1.088469
 C         2.555151         1.031756        -0.072871
 C         3.518736         0.023406        -0.861451
 O         4.595919        -0.698710        -0.156528
 C         4.270036        -2.080672         0.023847
 C         2.740723        -2.261726         0.032291
 C         2.296866        -1.019332        -0.886676
 H        -0.558546        -0.662476         0.258786
 H        -0.258190         1.033518         0.157108
 H        -0.400842         0.187471        -1.415636
 H         2.456466         2.126365        -0.287590
 H         3.945882         0.526452        -1.721022
 H         4.536203        -2.703877        -0.924173
 H         4.688235        -2.375643         1.007189
 H         2.603094        -3.276242        -0.272296
 H         2.472191        -2.013733         1.084163
 H         1.959172        -1.346434        -1.839072
