19
Iteration:  1284
 C         0.050627         0.056555        -0.084562
 C         1.506568        -0.010651        -0.206222
 O         2.156420         0.547291         0.971005
 C         2.615873         1.009468        -0.338311
 C         3.519693        -0.067243        -0.803704
 O         4.409816        -0.542003         0.193065
 C         4.198697        -2.043101         0.091920
 C         2.716832        -2.419708        -0.271380
 C         2.239195        -1.097752        -0.915748
 H        -0.412208        -0.898076         0.054201
 H        -0.348534         0.805854         0.623899
 H        -0.322083         0.412963        -1.067408
 H         2.707655         2.090553        -0.587844
 H         3.963805        -0.020144        -1.820375
 H         4.796350        -2.292888        -0.868598
 H         4.657856        -2.551906         0.944514
 H         2.573086        -3.420116        -0.885701
 H         2.084775        -2.640912         0.609001
 H         1.930142        -1.017872        -1.994328
