19
Iteration:  1605
 C        -0.058726         0.189280        -0.246552
 C         1.433971         0.039700        -0.247260
 O         2.125883         0.409853         1.037864
 C         2.605184         0.952826        -0.148512
 C         3.499586        -0.065243        -0.896823
 O         4.508814        -0.674333        -0.067685
 C         4.290113        -2.030498         0.158193
 C         2.778599        -2.248792        -0.069064
 C         2.259249        -1.125573        -0.909924
 H        -0.578395        -0.109720         0.678391
 H        -0.389174         1.239168        -0.517266
 H        -0.527140        -0.371027        -1.002027
 H         2.718453         2.025817        -0.470793
 H         3.942575         0.310921        -1.839505
 H         4.924251        -2.648718        -0.552083
 H         4.457836        -2.257219         1.260000
 H         2.517482        -3.176516        -0.635208
 H         2.237926        -2.260336         0.935702
 H         1.711106        -1.388514        -1.774819
