19
Iteration:  4252
 C        -0.057886         0.140985        -0.284678
 C         1.427759        -0.049139        -0.213076
 O         2.099100         0.577230         0.952694
 C         2.659706         1.019778        -0.297287
 C         3.399430        -0.131914        -0.941758
 O         4.632830        -0.737238        -0.382227
 C         4.174880        -1.863134         0.440734
 C         2.797049        -2.361343         0.063578
 C         2.286764        -1.148810        -0.728853
 H        -0.650785        -0.365952        -1.115136
 H        -0.492696        -0.411270         0.611141
 H        -0.292892         1.250911        -0.351431
 H         2.637541         2.108242        -0.344103
 H         3.722702         0.070207        -1.999938
 H         4.974579        -2.678734         0.482834
 H         4.120359        -1.386976         1.469664
 H         2.884493        -3.326108        -0.533855
 H         2.186311        -2.548954         0.997455
 H         1.815084        -1.751368        -1.539250
