19
Iteration:  2248
 C        -0.059507         0.149111        -0.126142
 C         1.431403         0.001619        -0.139727
 O         2.114888         0.485909         1.042494
 C         2.613946         0.930817        -0.176514
 C         3.535518        -0.066843        -0.924111
 O         4.571754        -0.785088        -0.294729
 C         4.069684        -1.898597         0.437636
 C         2.863259        -2.352289        -0.274653
 C         2.291926        -1.036100        -0.898477
 H        -0.573040        -0.793537        -0.360363
 H        -0.350230         0.521086         0.813596
 H        -0.427795         0.846179        -0.884802
 H         2.602988         2.008464        -0.371972
 H         3.842904         0.324245        -1.908762
 H         5.012006        -2.576592         0.577088
 H         3.773502        -1.627299         1.474252
 H         3.042487        -2.968424        -1.128614
 H         2.156818        -2.972580         0.236671
 H         1.846525        -1.037779        -1.908041
