19
Iteration:  1164charge 0 multiplicity 1
 C         0.182129         0.621219        -0.499641
 C         1.399547        -0.063793        -0.104508
 O         1.901589         0.190779         1.191032
 C         2.529641         0.884558         0.031807
 C         3.208743        -0.106780        -0.902864
 O         4.611365        -0.682915        -0.554991
 C         4.376739        -1.770872         0.403622
 C         3.023776        -2.365145        -0.072805
 C         2.157520        -1.305909        -0.746067
 H        -0.611550        -0.067721        -0.479644
 H        -0.065859         1.621969        -0.016747
 H         0.275964         0.805520        -1.564998
 H         2.605970         1.956104        -0.030989
 H         3.225816         0.219462        -1.954811
 H         5.177894        -2.457070         0.108532
 H         4.144774        -1.412392         1.420092
 H         3.094620        -3.343292        -0.740773
 H         2.574149        -2.845981         0.795095
 H         1.690092        -1.662775        -1.743909
