19
Iteration:  4977charge 0 multiplicity 1
 C        -0.055394         0.135523        -0.230283
 C         1.499052        -0.069867        -0.247140
 O         2.225614         0.494523         0.911443
 C         2.571367         0.930691        -0.454534
 C         3.485070        -0.224975        -1.044147
 O         4.438885        -0.549377        -0.058017
 C         4.224015        -1.968568         0.315365
 C         2.732687        -2.164180         0.189536
 C         2.291793        -1.195253        -0.818602
 H        -0.589975         0.344189        -1.148244
 H        -0.581373        -0.715414         0.370459
 H        -0.104570         1.097636         0.335054
 H         2.508692         1.920987        -0.807599
 H         3.885157         0.036686        -2.056234
 H         4.821749        -2.621030        -0.374878
 H         4.557432        -2.050959         1.363208
 H         2.463083        -3.252865         0.042981
 H         2.295116        -1.873141         1.162034
 H         1.994220        -1.652282        -1.786902
