19
Iteration:  2755
 C        -0.107488         0.511995        -0.332373
 C         1.411712         0.068030        -0.089671
 O         2.108004         0.433289         1.032965
 C         2.621183         0.882735        -0.247312
 C         3.351553        -0.271789        -0.922385
 O         4.583088        -0.611701        -0.303075
 C         4.328760        -1.887305         0.333082
 C         2.873262        -2.502454        -0.069470
 C         2.216152        -1.257934        -0.751995
 H        -0.037883         1.415873        -0.889156
 H        -0.762962        -0.393210        -0.732823
 H        -0.418295         0.854709         0.684487
 H         2.849627         1.970739        -0.457574
 H         3.510494        -0.020738        -1.954350
 H         5.171919        -2.530021         0.087140
 H         4.192166        -1.763071         1.398792
 H         2.823065        -3.251571        -0.875718
 H         2.495833        -2.678667         0.901790
 H         1.640446        -1.599461        -1.600359
