19
Iteration:  3973charge 0 multiplicity 1
 C        -0.081744         0.148727        -0.441413
 C         1.425393         0.000475        -0.171499
 O         2.275039         0.487294         0.949328
 C         2.529528         0.973293        -0.338844
 C         3.396823        -0.181323        -0.930782
 O         4.538304        -0.574369        -0.152008
 C         4.305195        -1.973093         0.250533
 C         2.828946        -2.283345         0.210624
 C         2.185918        -1.152419        -0.695656
 H        -0.269967         0.419363        -1.460991
 H        -0.672478        -0.782731        -0.233204
 H        -0.363854         1.069272         0.033860
 H         2.317569         2.007311        -0.286515
 H         3.523817        -0.360704        -1.994473
 H         4.784366        -2.550420        -0.506072
 H         4.721476        -2.098762         1.262223
 H         2.631166        -3.237121        -0.339819
 H         2.294920        -2.336562         1.186692
 H         1.808921        -1.444250        -1.729934
