19
Iteration:  2286
 C        -0.085424         0.371256        -0.173722
 C         1.390258        -0.050667        -0.135591
 O         2.179618         0.420527         0.966370
 C         2.568156         0.876354        -0.296349
 C         3.513423        -0.150122        -0.867961
 O         4.403323        -0.554840        -0.013431
 C         4.287828        -1.976659         0.185804
 C         2.861897        -2.440751        -0.259544
 C         2.265575        -1.127858        -0.816242
 H        -0.840109        -0.367448        -0.526309
 H        -0.328656         0.762905         0.908157
 H        -0.131329         1.372577        -0.670770
 H         2.492234         1.987037        -0.372948
 H         3.982791         0.226142        -1.810492
 H         5.115076        -2.492934        -0.230796
 H         4.277847        -2.179044         1.322949
 H         3.053855        -3.174375        -1.124305
 H         2.418401        -2.908321         0.686998
 H         1.870987        -1.424741        -1.782791
