19
Iteration:  3421
 C        -0.027239         0.068805        -0.033128
 C         1.472281         0.025042        -0.153244
 O         2.274394         0.709264         0.893848
 C         2.615414         0.923360        -0.429110
 C         3.513470        -0.234144        -1.005326
 O         4.552026        -0.735292        -0.261224
 C         3.983503        -1.792028         0.550177
 C         2.782539        -2.368532        -0.148671
 C         2.258194        -1.167659        -0.799982
 H        -0.649511         0.227891        -0.969648
 H        -0.379637        -0.939705         0.284962
 H        -0.136148         0.824773         0.783325
 H         2.706837         1.891937        -0.928168
 H         3.821464        -0.077509        -2.084875
 H         4.711268        -2.561665         0.825979
 H         3.547422        -1.298717         1.401056
 H         3.092617        -3.221562        -0.766022
 H         2.098082        -2.781468         0.540372
 H         1.659390        -1.424440        -1.705773
