19
Iteration:  2217charge 0 multiplicity 1
 C         0.064745        -0.033005        -0.185271
 C         1.521691         0.013336        -0.140306
 O         2.237179         0.285597         1.103099
 C         2.638389         0.989055        -0.054220
 C         3.529761        -0.055677        -1.035734
 O         4.565387        -0.810908        -0.361569
 C         3.923829        -1.705960         0.509205
 C         2.724684        -2.247372        -0.181689
 C         2.210295        -0.966829        -1.060745
 H        -0.245310        -1.089096        -0.079773
 H        -0.464458         0.663926         0.407033
 H        -0.209192         0.343578        -1.216401
 H         2.739539         2.047476         0.052730
 H         3.966376         0.348490        -1.986071
 H         4.747439        -2.368962         0.948226
 H         3.620159        -1.105220         1.388718
 H         2.909093        -3.038345        -0.896404
 H         1.900120        -2.549457         0.592777
 H         1.705197        -1.106809        -2.015465
