19
Iteration:  4588
 C        -0.069049         0.312073        -0.416366
 C         1.384346         0.000043        -0.193247
 O         2.231539         0.373568         0.987500
 C         2.493092         0.888995        -0.361943
 C         3.396868        -0.232413        -0.918544
 O         4.561813        -0.573083        -0.224107
 C         4.328946        -1.946643         0.242569
 C         2.840639        -2.127456         0.254405
 C         2.191357        -1.302113        -0.709349
 H        -0.197669         0.321144        -1.536920
 H        -0.867025        -0.361809         0.001608
 H        -0.342243         1.377956        -0.075605
 H         2.551379         1.978443        -0.607662
 H         3.671452        -0.149348        -1.971100
 H         4.721910        -2.792994        -0.309143
 H         4.781847        -1.853960         1.224390
 H         2.729669        -3.175631         0.011723
 H         2.502373        -1.866818         1.214747
 H         1.825899        -1.723798        -1.655258
