19
Iteration:  4509charge 0 multiplicity 1
 C        -0.061658         0.036069        -0.428056
 C         1.396775         0.087208        -0.134653
 O         2.002402         0.789657         0.946928
 C         2.572037         0.987528        -0.308447
 C         3.426377        -0.208385        -0.910872
 O         4.561224        -0.736513        -0.164249
 C         4.288619        -2.110702         0.028814
 C         2.878914        -2.209746         0.312526
 C         2.360544        -1.150406        -0.625122
 H        -0.306262         0.116416        -1.497684
 H        -0.382613        -0.975762        -0.025432
 H        -0.623324         0.834709        -0.000750
 H         2.625572         1.957665        -0.761272
 H         3.702522        -0.214009        -1.976199
 H         4.523794        -2.728554        -0.858761
 H         4.970224        -2.419687         0.813870
 H         2.371827        -3.155176         0.078698
 H         2.674727        -2.143044         1.343283
 H         1.947528        -1.612350        -1.562010
