19
Iteration:  2221
 C         0.060479        -0.035483        -0.185655
 C         1.529830         0.029647        -0.121250
 O         2.226763         0.315621         1.117035
 C         2.618484         1.022888        -0.082564
 C         3.540061        -0.075452        -0.986064
 O         4.611760        -0.796795        -0.389189
 C         3.912233        -1.716952         0.510964
 C         2.721009        -2.264826        -0.204430
 C         2.223014        -1.032699        -1.055225
 H        -0.284874        -1.082320        -0.204576
 H        -0.450202         0.728070         0.508645
 H        -0.269235         0.421212        -1.148941
 H         2.687355         2.102688         0.069130
 H         3.855583         0.343245        -1.948588
 H         4.649677        -2.276735         0.954429
 H         3.577269        -1.170363         1.402778
 H         2.837057        -3.132204        -0.911255
 H         1.880230        -2.653468         0.431515
 H         1.714017        -1.043623        -2.032925
