19
Iteration:  1227charge 0 multiplicity 1
 C        -0.001226         0.081343        -0.310101
 C         1.458353         0.071049        -0.267795
 O         1.969018         0.204734         1.063599
 C         2.629282         0.925362        -0.043498
 C         3.556950         0.017215        -0.874918
 O         4.626439        -0.738731        -0.324879
 C         4.178071        -1.926698         0.188461
 C         2.665038        -2.105884         0.068146
 C         2.346003        -0.981209        -0.869573
 H        -0.353345        -0.614775         0.473598
 H        -0.518154         1.051000        -0.011285
 H        -0.317977        -0.252423        -1.299577
 H         2.740432         1.970358         0.117773
 H         3.824140         0.378693        -1.897814
 H         4.617109        -2.773560        -0.481832
 H         4.558036        -2.047362         1.191215
 H         2.500930        -3.125309        -0.491084
 H         2.122750        -2.014866         1.085410
 H         2.172002        -1.332513        -1.916916
