19
Iteration:  3749charge 0 multiplicity 1
 C         0.070432         0.093814        -0.069953
 C         1.541870        -0.020713        -0.281906
 O         2.213542         0.343798         0.932784
 C         2.647015         0.962553        -0.266114
 C         3.489356        -0.177395        -0.999640
 O         4.529089        -0.765089        -0.396850
 C         3.980542        -1.537180         0.661597
 C         2.720884        -2.267889        -0.023776
 C         2.248597        -1.150987        -0.973816
 H        -0.433330         0.017529        -1.063560
 H        -0.245963        -0.783447         0.445460
 H        -0.278258         0.950291         0.530835
 H         2.693528         2.040531        -0.173559
 H         3.777273         0.016736        -2.013619
 H         4.723613        -2.338064         0.894401
 H         3.721393        -1.084268         1.625340
 H         2.924072        -3.021296        -0.844490
 H         1.977098        -2.741788         0.636912
 H         1.744409        -1.473324        -1.904336
