19
Iteration:  1463
 C         0.035953         0.440714        -0.502095
 C         1.399857        -0.022883        -0.118678
 O         1.971732         0.336432         1.153353
 C         2.554491         0.906686        -0.084086
 C         3.395020        -0.109476        -0.822498
 O         4.606326        -0.560977        -0.232691
 C         4.396932        -2.024385        -0.038072
 C         2.813656        -2.384093         0.059933
 C         2.217607        -1.177547        -0.699576
 H        -0.500458        -0.510280        -0.513979
 H        -0.508696         1.144955         0.138592
 H         0.034957         0.784881        -1.490254
 H         2.588784         1.992615        -0.231498
 H         3.580030         0.146999        -1.880311
 H         4.869995        -2.557015        -0.846148
 H         4.875099        -2.104115         0.996523
 H         2.688326        -3.223851        -0.652574
 H         2.402174        -2.449773         1.122625
 H         1.817780        -1.509219        -1.620039
