19
Iteration:  3186
 C        -0.031169         0.249639        -0.144010
 C         1.454134         0.045956        -0.277233
 O         2.205141         0.485721         0.962106
 C         2.686207         0.908658        -0.346580
 C         3.406867        -0.261878        -1.065068
 O         4.538944        -0.843561        -0.397033
 C         4.091679        -1.637943         0.615633
 C         2.855952        -2.327965         0.062227
 C         2.243842        -1.160971        -0.820023
 H        -0.595202         0.262800        -1.047922
 H        -0.591737        -0.601121         0.251759
 H        -0.193608         1.063848         0.533539
 H         2.608864         1.980269        -0.547952
 H         3.634420        -0.124513        -2.104119
 H         4.858027        -2.376997         0.855016
 H         3.903541        -1.137959         1.573992
 H         2.900591        -3.157155        -0.644833
 H         2.073993        -2.673969         0.808954
 H         1.876821        -1.626260        -1.752012
