19
Iteration:  3680charge 0 multiplicity 1
 C        -0.050218         0.237365        -0.301695
 C         1.464246         0.018124        -0.088629
 O         2.241338         0.594760         0.927377
 C         2.584874         0.986249        -0.311829
 C         3.389956        -0.157535        -1.002962
 O         4.401337        -0.577516        -0.107931
 C         4.285129        -1.984662         0.297541
 C         2.867098        -2.425798        -0.053689
 C         2.193147        -1.284034        -0.703445
 H        -0.246689        -0.188609        -1.285614
 H        -0.836195        -0.149440         0.459168
 H        -0.173869         1.331358        -0.368650
 H         2.512953         2.129193        -0.425295
 H         3.740378         0.073700        -2.017421
 H         5.088097        -2.616350        -0.162552
 H         4.521642        -1.974419         1.387687
 H         3.171259        -3.400968        -0.606733
 H         2.245705        -2.809860         0.780563
 H         1.743744        -1.665788        -1.612537
