19
Iteration:  4405
 C        -0.138461         0.233143        -0.279276
 C         1.386947         0.039683        -0.228259
 O         2.175858         0.465167         0.946135
 C         2.550212         0.934755        -0.328122
 C         3.410164        -0.198973        -1.019620
 O         4.576729        -0.682218        -0.279754
 C         4.309262        -1.896668         0.428214
 C         2.835138        -2.260873         0.170364
 C         2.279316        -1.222527        -0.808928
 H        -0.367232        -0.074640        -1.280705
 H        -0.670134        -0.275547         0.435716
 H        -0.437206         1.238760        -0.003025
 H         2.625003         2.009110        -0.530189
 H         3.766042         0.010199        -2.078828
 H         5.074428        -2.548286         0.026844
 H         4.292769        -1.845085         1.531824
 H         2.770485        -3.302844        -0.183744
 H         2.400162        -2.091471         1.196787
 H         1.779358        -1.518266        -1.717097
