19
Iteration:  3849charge 0 multiplicity 1
 C        -0.105323         0.334878        -0.475584
 C         1.364546         0.021305        -0.176751
 O         2.080717         0.466406         1.022929
 C         2.497373         0.914564        -0.300582
 C         3.433540        -0.176040        -0.903643
 O         4.552047        -0.620536        -0.269087
 C         4.439499        -2.049398         0.173318
 C         2.882966        -2.301641         0.183625
 C         2.255977        -1.173915        -0.580890
 H        -0.446203        -0.021141        -1.468502
 H        -0.630833        -0.143010         0.312577
 H        -0.349808         1.420950        -0.373652
 H         2.505880         2.074142        -0.440282
 H         3.460908         0.133085        -1.957916
 H         4.980445        -2.865552        -0.336822
 H         4.784143        -1.897187         1.232725
 H         2.789268        -3.280820        -0.334218
 H         2.344794        -2.492452         1.143469
 H         2.076464        -1.624336        -1.590772
