19
Iteration:   884charge 0 multiplicity 1
 C        -0.119945         0.334939        -0.316690
 C         1.346060        -0.003416        -0.245332
 O         1.965051         0.239641         1.113760
 C         2.637484         0.876975         0.032107
 C         3.494180        -0.054307        -0.885752
 O         4.727638        -0.881390        -0.647134
 C         4.263949        -1.779883         0.426022
 C         2.805708        -2.251690         0.077851
 C         2.261673        -1.033759        -0.901519
 H        -0.841328        -0.451474        -0.255037
 H        -0.351062         1.099527         0.466077
 H        -0.305626         0.838001        -1.263122
 H         2.905396         1.921309         0.017239
 H         3.662684         0.610274        -1.755359
 H         4.943884        -2.746458         0.371088
 H         4.369753        -1.234489         1.343664
 H         2.944667        -3.239455        -0.468543
 H         2.153175        -2.532099         0.989443
 H         2.029278        -1.407037        -1.883637
