19
Iteration:  3667
 C        -0.026304         0.242309        -0.334076
 C         1.395700        -0.022055        -0.088415
 O         2.243864         0.556786         1.029801
 C         2.524259         0.911808        -0.407135
 C         3.425051        -0.236586        -0.951460
 O         4.446677        -0.580627        -0.069667
 C         4.359427        -1.916354         0.243112
 C         2.804446        -2.402272         0.030057
 C         2.210535        -1.150487        -0.776889
 H        -0.275655        -0.146587        -1.334830
 H        -0.716817        -0.266307         0.455549
 H        -0.289129         1.330883        -0.366767
 H         2.644313         1.969819        -0.781302
 H         3.809124        -0.160542        -2.003105
 H         4.959351        -2.488444        -0.494744
 H         4.747382        -2.109511         1.276250
 H         2.595330        -3.223486        -0.713305
 H         2.340666        -2.631271         1.028610
 H         1.682643        -1.330365        -1.719848
