19
Iteration:  1457charge 0 multiplicity 1
 C         0.014838         0.403553        -0.500229
 C         1.388768        -0.068057        -0.117037
 O         1.964081         0.395447         1.154829
 C         2.524356         0.901239        -0.022771
 C         3.430127        -0.086363        -0.814048
 O         4.675630        -0.593285        -0.272570
 C         4.316240        -2.041608        -0.021980
 C         2.830139        -2.408233         0.052894
 C         2.254236        -1.107656        -0.721968
 H        -0.708564        -0.455758        -0.567161
 H        -0.594255         1.124372         0.118453
 H         0.023172         0.658293        -1.627535
 H         2.533427         1.981486        -0.221657
 H         3.528013         0.312533        -1.846675
 H         4.880506        -2.669645        -0.782620
 H         4.874719        -2.175883         0.910602
 H         2.644428        -3.343976        -0.468129
 H         2.597080        -2.294018         1.109145
 H         1.743941        -1.415465        -1.706035
