19
Iteration:  3977
 C        -0.098359         0.173889        -0.425296
 C         1.441323        -0.037456        -0.168973
 O         2.286188         0.471098         0.949035
 C         2.517498         0.969928        -0.316528
 C         3.417603        -0.214639        -0.962776
 O         4.544169        -0.553558        -0.139702
 C         4.295129        -1.926165         0.296218
 C         2.813056        -2.285262         0.209596
 C         2.157737        -1.148776        -0.749045
 H        -0.344233         0.407802        -1.519278
 H        -0.683374        -0.722367        -0.227183
 H        -0.370032         1.120992         0.103314
 H         2.496902         2.102305        -0.318904
 H         3.548868        -0.303401        -2.100730
 H         4.757715        -2.544097        -0.581732
 H         4.767634        -2.195759         1.241447
 H         2.711486        -3.225617        -0.370129
 H         2.351779        -2.361971         1.172941
 H         1.818104        -1.656231        -1.661453
