19
Iteration:  3811charge 0 multiplicity 1
 C        -0.015003         0.259484        -0.253993
 C         1.424576        -0.014956        -0.230826
 O         2.024105         0.496641         1.037222
 C         2.534019         0.935191        -0.328285
 C         3.475716        -0.160190        -1.001767
 O         4.562163        -0.657248        -0.354553
 C         4.248216        -1.964570         0.455718
 C         2.812801        -2.300230         0.103916
 C         2.338189        -1.168507        -0.807885
 H        -0.518406         0.383142        -1.223211
 H        -0.392357        -0.764900         0.089885
 H        -0.298342         1.058721         0.435994
 H         2.734315         1.922735        -0.627998
 H         3.799735         0.036703        -2.037973
 H         5.071401        -2.475370         0.009690
 H         4.340582        -1.787271         1.513120
 H         2.716524        -3.238332        -0.474585
 H         2.360215        -2.320381         1.082240
 H         1.844413        -1.604828        -1.657954
