19
Iteration:  2369charge 0 multiplicity 1
 C        -0.026502         0.050296        -0.468440
 C         1.459969         0.045328        -0.231955
 O         1.881204         0.562768         1.120884
 C         2.582459         1.047440        -0.020560
 C         3.504689        -0.042081        -0.804094
 O         4.631840        -0.846802        -0.261564
 C         4.274893        -2.211855        -0.119732
 C         2.766830        -2.111461         0.176162
 C         2.358492        -1.025644        -0.742849
 H        -0.456298        -0.189566        -1.418701
 H        -0.394149        -0.667852         0.213355
 H        -0.391883         1.070328        -0.309973
 H         2.644683         2.111567        -0.008744
 H         3.750962         0.390411        -1.777295
 H         4.449332        -2.664047        -1.117978
 H         4.802740        -2.560675         0.772987
 H         2.385512        -3.087311         0.232426
 H         2.701668        -1.785418         1.224350
 H         2.108634        -1.423714        -1.737548
