19
Iteration:   605charge 0 multiplicity 1
 C         0.014374         0.083429        -0.465745
 C         1.446997         0.105591        -0.197100
 O         2.218110         0.111354         1.178908
 C         2.660225         0.936183         0.070729
 C         3.501341        -0.037280        -0.980172
 O         4.578089        -0.771797        -0.518268
 C         4.155882        -1.816325         0.406540
 C         2.608140        -2.102545         0.059355
 C         2.208352        -0.974773        -0.916304
 H        -0.473958        -0.334614         0.446335
 H        -0.454361         1.015144        -0.746937
 H         0.012486        -0.580802        -1.312396
 H         2.809199         2.024715         0.253149
 H         3.803057         0.465239        -1.931243
 H         4.778147        -2.599010         0.201049
 H         4.370773        -1.497613         1.533031
 H         2.457749        -3.041114        -0.441595
 H         1.870379        -2.221127         0.907824
 H         1.812000        -1.332160        -1.932043
