19
Iteration:  3487charge 0 multiplicity 1
 C        -0.102551         0.285659        -0.198849
 C         1.491626         0.001647        -0.264491
 O         2.063829         0.309364         0.983062
 C         2.664853         0.857913        -0.297185
 C         3.484537        -0.229799        -1.090933
 O         4.630714        -0.684834        -0.459379
 C         4.242625        -1.723933         0.538746
 C         2.738637        -2.203192         0.212845
 C         2.240319        -1.216094        -0.879815
 H        -0.647618         0.011700        -1.184762
 H        -0.548347        -0.371177         0.567201
 H        -0.284482         1.344117         0.113960
 H         2.734961         1.954623        -0.056376
 H         3.792771         0.148306        -2.114697
 H         4.993127        -2.550072         0.425489
 H         4.246937        -1.324976         1.547245
 H         2.660966        -3.259009        -0.053638
 H         2.139251        -1.901243         1.048273
 H         1.548541        -1.647588        -1.654121
