19
Iteration:   343charge 0 multiplicity 1
 C        -0.189391         0.567836        -0.247502
 C         1.370400         0.060690        -0.235816
 O         1.840879         0.361894         1.147157
 C         2.484957         0.880774        -0.045268
 C         3.515364        -0.116729        -0.884608
 O         4.765076        -0.803544        -0.493923
 C         4.352967        -1.932775         0.435157
 C         2.982233        -2.459231        -0.126578
 C         2.331689        -1.182772        -0.927587
 H        -0.320751         1.185770         0.565326
 H        -0.365361         1.209927        -1.108500
 H        -0.945764        -0.127121        -0.272446
 H         2.486221         1.956863        -0.042086
 H         3.690986         0.436571        -1.825126
 H         5.142326        -2.673321         0.479987
 H         4.121021        -1.486074         1.469245
 H         3.145405        -3.179436        -0.794928
 H         2.281964        -2.909902         0.641038
 H         1.755570        -1.501365        -1.904506
