19
Iteration:   705charge 0 multiplicity 1
 C         0.012830         0.263513        -0.100155
 C         1.475159        -0.029184        -0.130341
 O         2.229738         0.413716         1.009058
 C         2.541559         0.934463        -0.297128
 C         3.502710        -0.185428        -1.051608
 O         4.492299        -0.667153        -0.171575
 C         4.068597        -1.828527         0.502266
 C         2.840769        -2.369869        -0.288964
 C         2.266494        -1.138491        -0.859967
 H        -0.578655        -0.618309         0.031599
 H        -0.208464         1.084936         0.540813
 H        -0.207577         0.560718        -1.144667
 H         2.395921         1.996319        -0.277952
 H         3.865279         0.063104        -2.066859
 H         4.934008        -2.420954         0.579828
 H         3.716961        -1.531395         1.567768
 H         3.141047        -2.936490        -1.194113
 H         2.147199        -2.849691         0.340064
 H         1.612749        -1.382473        -1.785033
