19
Iteration:  1306
 C        -0.121796         0.265841        -0.121192
 C         1.441417        -0.006057        -0.118232
 O         2.180501         0.652463         0.999563
 C         2.497821         0.969554        -0.378792
 C         3.505391        -0.142213        -0.822408
 O         4.289582        -0.682155         0.209823
 C         4.363545        -2.088887         0.043261
 C         2.924393        -2.413839        -0.308390
 C         2.353409        -1.133279        -0.862080
 H        -0.665348        -0.624888         0.153022
 H        -0.461222         0.993106         0.653630
 H        -0.565098         0.660542        -1.066037
 H         2.457095         1.999573        -0.815627
 H         4.161079         0.029983        -1.715460
 H         5.089360        -2.237768        -0.846947
 H         4.701087        -2.584132         0.970865
 H         2.782548        -3.224133        -1.183243
 H         2.406940        -2.977517         0.477473
 H         1.860122        -1.292714        -1.865059
