19
Iteration:  2406
 C        -0.052619         0.383106        -0.671580
 C         1.349153         0.049163        -0.123935
 O         1.997146         0.363535         1.178073
 C         2.618675         0.869137        -0.058105
 C         3.405726        -0.136821        -0.886192
 O         4.614482        -0.711259        -0.358068
 C         4.322880        -2.015320        -0.012847
 C         2.861516        -2.206751         0.286897
 C         2.254313        -1.147819        -0.675268
 H        -0.171024         0.896402        -1.625985
 H        -0.646604        -0.561725        -0.646382
 H        -0.468552         0.809508         0.211979
 H         2.765427         1.984548        -0.073482
 H         3.552204         0.241341        -1.936346
 H         4.742853        -2.805886        -0.677536
 H         4.910666        -2.303521         0.885066
 H         2.431725        -3.198317         0.057298
 H         2.805740        -1.866482         1.350170
 H         2.034602        -1.499639        -1.687186
