19
Iteration:    75
 C        -0.030713         0.413819        -0.550373
 C         1.409664        -0.016094        -0.078871
 O         2.222834         0.221570         1.304516
 C         2.521438         0.866275        -0.023803
 C         3.371423        -0.073449        -0.912451
 O         4.555199        -0.659340        -0.426580
 C         4.186584        -1.802603         0.309827
 C         2.813869        -2.413811        -0.116096
 C         2.313009        -1.107128        -0.814878
 H        -0.390400         1.324007        -0.225493
 H        -0.003432         0.405846        -1.616725
 H        -0.698002        -0.374205        -0.297490
 H         2.541372         1.930239        -0.159670
 H         3.547566         0.359670        -1.929046
 H         5.127928        -2.477986         0.276953
 H         4.044878        -1.565246         1.344279
 H         2.934739        -3.279339        -0.754401
 H         2.260445        -2.731228         0.679138
 H         2.028358        -1.327900        -1.835976
