19
Iteration:   383
 C        -0.025162         0.457833        -0.343834
 C         1.403624        -0.030894        -0.247225
 O         2.128828         0.241463         1.119038
 C         2.559840         0.951220        -0.096668
 C         3.425064        -0.139552        -0.914951
 O         4.581583        -0.627351        -0.312433
 C         4.263679        -1.896279         0.364755
 C         2.871554        -2.397884        -0.090818
 C         2.163953        -1.136498        -0.828018
 H        -0.431991         0.556151         0.712538
 H        -0.087578         1.401679        -0.923128
 H        -0.584968        -0.343515        -0.869489
 H         2.540253         2.017355        -0.295153
 H         3.747892         0.248361        -1.897800
 H         5.081853        -2.492332         0.015008
 H         4.321183        -1.729284         1.432821
 H         2.970594        -3.248147        -0.895721
 H         2.249219        -2.772553         0.704723
 H         1.739523        -1.493600        -1.726094
