19
Iteration:  1622charge 0 multiplicity 1
 C        -0.168589         0.403276        -0.222558
 C         1.355931         0.066018        -0.203549
 O         2.045557         0.280212         0.975281
 C         2.641330         0.913167        -0.280534
 C         3.497517        -0.194202        -0.887196
 O         4.535953        -0.568189        -0.056683
 C         4.362654        -2.023753         0.186166
 C         2.844357        -2.348189        -0.053444
 C         2.284721        -1.074754        -0.884267
 H        -0.590489        -0.039100         0.720871
 H        -0.405645         1.449481        -0.116255
 H        -0.811522        -0.161099        -1.008941
 H         2.733833         1.916026         0.070826
 H         3.857486        -0.031569        -1.916097
 H         4.954037        -2.640693        -0.505522
 H         4.746675        -2.194429         1.167114
 H         2.728747        -3.266621        -0.617049
 H         2.377049        -2.248577         0.898124
 H         2.150509        -1.402456        -1.965424
