19
Iteration:  1121charge 0 multiplicity 1
 C        -0.022439         0.385487        -0.369803
 C         1.389118         0.032741        -0.114704
 O         2.055759         0.055008         1.144091
 C         2.606948         0.852171        -0.046306
 C         3.463451        -0.168511        -0.936980
 O         4.679390        -0.799510        -0.569582
 C         4.192038        -1.649160         0.487126
 C         2.835142        -2.161959        -0.030499
 C         2.180795        -1.091594        -0.914554
 H        -0.628764        -0.507566        -0.386873
 H        -0.372103         1.204647         0.339287
 H        -0.031977         0.815339        -1.387684
 H         2.655122         1.909847         0.152275
 H         3.689583         0.337195        -1.886076
 H         4.876196        -2.519552         0.611221
 H         4.086746        -0.941829         1.371253
 H         3.100074        -3.142509        -0.523220
 H         2.253386        -2.472295         0.785502
 H         1.733569        -1.508638        -1.886900
