19
Iteration:  4736charge 0 multiplicity 1
 C         0.009203         0.175725        -0.141727
 C         1.391117         0.031242        -0.276048
 O         2.142836         0.603037         0.857459
 C         2.550610         0.892725        -0.491599
 C         3.489682        -0.200026        -1.020631
 O         4.578183        -0.602346        -0.142556
 C         4.185540        -1.903214         0.482050
 C         2.790126        -2.374951         0.121838
 C         2.248248        -1.162691        -0.836919
 H        -0.626135         0.575638        -0.973516
 H        -0.539965        -0.798871         0.244068
 H        -0.118035         0.712132         0.807790
 H         2.765923         1.988955        -0.580432
 H         3.687656        -0.271665        -2.114124
 H         5.032802        -2.694625         0.211843
 H         4.416446        -1.671752         1.526948
 H         2.846437        -3.330315        -0.547307
 H         2.055743        -2.620008         0.920646
 H         1.833180        -1.721326        -1.707777
