19
Iteration:  4232
 C        -0.040320         0.079843        -0.274881
 C         1.399193         0.130199        -0.183024
 O         1.993389         0.675882         0.993785
 C         2.551905         0.992702        -0.272978
 C         3.529400        -0.195104        -0.879691
 O         4.668782        -0.846581        -0.476916
 C         4.250559        -1.883860         0.484780
 C         2.795601        -2.372240         0.076873
 C         2.250772        -1.100329        -0.787643
 H        -0.404230        -0.467054        -1.145308
 H        -0.347130        -0.616531         0.567032
 H        -0.497173         1.080475        -0.310634
 H         2.598479         2.008629        -0.671696
 H         3.713001         0.069623        -1.954420
 H         5.077962        -2.614882         0.407459
 H         4.314937        -1.571834         1.549414
 H         2.798119        -3.151568        -0.630398
 H         2.185100        -2.588422         0.992277
 H         1.984200        -1.552409        -1.762388
