19
Iteration:  1912charge 0 multiplicity 1
 C         0.011060         0.062780        -0.144026
 C         1.465022         0.044695        -0.222139
 O         2.189668         0.204496         0.982193
 C         2.741201         0.929959        -0.081734
 C         3.530258        -0.068540        -0.922727
 O         4.516235        -0.714921        -0.367915
 C         3.959507        -1.666730         0.568560
 C         2.716733        -2.260812        -0.256339
 C         2.247488        -1.057721        -0.990474
 H        -0.106537        -0.953288         0.319904
 H        -0.288253         0.869401         0.546332
 H        -0.453587         0.280593        -1.096014
 H         2.992975         1.990286         0.198079
 H         3.838928         0.388309        -1.859737
 H         4.711686        -2.393550         0.705623
 H         3.739882        -1.167419         1.503773
 H         3.107460        -3.043929        -0.868729
 H         2.065934        -2.658818         0.526731
 H         1.905176        -1.284122        -1.950871
