19
Iteration:  2674
 C        -0.038377         0.152981        -0.321192
 C         1.404262         0.131393        -0.232374
 O         1.990313         0.301939         1.064802
 C         2.684781         0.981721        -0.041620
 C         3.561137        -0.044579        -0.852943
 O         4.656484        -0.881715        -0.508837
 C         4.247388        -1.968236         0.273434
 C         2.693827        -2.129079         0.080207
 C         2.225917        -1.037532        -0.861149
 H        -0.388326        -0.542989        -1.147310
 H        -0.395418        -0.339134         0.578855
 H        -0.465328         1.186692        -0.402264
 H         2.883458         2.018539         0.234149
 H         3.610819         0.313760        -1.903761
 H         4.902089        -2.769230        -0.040048
 H         4.447188        -1.818696         1.386227
 H         2.310072        -3.156753        -0.072808
 H         2.303522        -1.906412         1.133670
 H         1.960852        -1.085288        -1.927087
