19
Iteration:  3615
 C        -0.093562         0.155528        -0.281525
 C         1.373205         0.120962        -0.404938
 O         1.938964         0.463161         0.932406
 C         2.598275         0.974841        -0.251556
 C         3.528565        -0.142793        -0.862880
 O         4.623197        -0.664330        -0.141931
 C         4.271513        -2.132186         0.005443
 C         2.832046        -2.070593         0.331914
 C         2.324978        -1.218935        -0.726808
 H        -0.634529         0.269470        -1.188244
 H        -0.275049        -0.831129         0.205256
 H        -0.430744         0.886971         0.432359
 H         2.853527         2.032290        -0.571496
 H         3.798589         0.002309        -1.893740
 H         4.481400        -2.650523        -0.955647
 H         4.860591        -2.678874         0.755165
 H         2.202686        -3.023864         0.471970
 H         2.790603        -1.653228         1.342546
 H         2.196991        -1.698133        -1.684135
