19
Iteration:  3051
 C        -0.014062         0.342545        -0.221722
 C         1.450265        -0.025691        -0.050911
 O         2.195846         0.586206         0.976159
 C         2.671536         0.885715        -0.384418
 C         3.310180        -0.275690        -1.021346
 O         4.577936        -0.677326        -0.322440
 C         4.162449        -1.844961         0.525468
 C         2.918617        -2.386906        -0.093144
 C         2.112555        -1.216728        -0.712489
 H        -0.707206        -0.373154        -0.673996
 H        -0.377428         0.668405         0.689053
 H         0.028249         1.101061        -0.993150
 H         2.684049         1.929377        -0.663033
 H         3.717802        -0.194805        -1.995243
 H         4.876256        -2.690690         0.440519
 H         4.113130        -1.367540         1.490583
 H         3.169583        -3.121843        -0.927553
 H         2.220544        -2.995939         0.478362
 H         1.422948        -1.561438        -1.522745
