19
Iteration:  1063charge 0 multiplicity 1
 C        -0.035072        -0.009210        -0.075338
 C         1.468315         0.037711        -0.121854
 O         2.200790         0.397144         0.953492
 C         2.633544         1.012704        -0.306445
 C         3.553371        -0.044572        -0.973950
 O         4.493598        -0.701469        -0.153886
 C         4.086756        -2.002507         0.396135
 C         2.674024        -2.217458        -0.218985
 C         2.362010        -0.973479        -0.948209
 H        -0.375737        -0.688000         0.694218
 H        -0.481569         0.889786         0.271043
 H        -0.449090        -0.280909        -1.038535
 H         2.763930         2.103923        -0.218093
 H         4.072157         0.252479        -1.901415
 H         4.781841        -2.829586         0.080606
 H         4.208452        -2.001914         1.471525
 H         2.641290        -3.204443        -0.748905
 H         1.922318        -2.178427         0.675098
 H         1.758727        -1.156779        -1.821809
