19
Iteration:   610charge 0 multiplicity 1
 C         0.055537         0.114288        -0.478091
 C         1.423774         0.135346        -0.177077
 O         2.272186         0.092985         1.220043
 C         2.598487         0.953491         0.043618
 C         3.481959        -0.029623        -0.987417
 O         4.563417        -0.739877        -0.523138
 C         4.114814        -1.833581         0.450863
 C         2.652439        -2.169915         0.073940
 C         2.194384        -0.962273        -0.955345
 H        -0.594158        -0.344219         0.262859
 H        -0.346562         1.078068        -0.850567
 H        -0.056478        -0.638438        -1.290723
 H         2.806207         2.005134         0.168142
 H         3.871760         0.341602        -1.945751
 H         4.790632        -2.762542         0.174894
 H         4.299215        -1.518838         1.405186
 H         2.658490        -3.149654        -0.518798
 H         2.059065        -2.174411         0.962699
 H         1.752630        -1.313487        -1.885231
