19
Iteration:  4749
 C        -0.083633         0.163713        -0.191476
 C         1.489694         0.045433        -0.243131
 O         2.114186         0.648516         0.909036
 C         2.598483         0.973133        -0.461052
 C         3.476205        -0.254678        -1.010457
 O         4.515623        -0.647939        -0.208559
 C         4.282930        -1.905099         0.447126
 C         2.762335        -2.369294         0.094811
 C         2.264078        -1.243455        -0.712875
 H        -0.498401         0.507605        -1.112191
 H        -0.328747        -0.913836        -0.150003
 H        -0.433934         0.779499         0.581039
 H         2.509603         2.028611        -0.786831
 H         3.936220         0.073104        -1.996076
 H         5.103502        -2.620451         0.016611
 H         4.266224        -1.831550         1.525262
 H         2.683908        -3.366864        -0.466932
 H         2.295900        -2.429676         1.078685
 H         1.771349        -1.471922        -1.697016
