19
Iteration:  4536
 C        -0.105855         0.141572        -0.384790
 C         1.330299         0.081901        -0.223084
 O         1.996144         0.635820         0.883035
 C         2.505623         0.963896        -0.350470
 C         3.440485        -0.179518        -0.868749
 O         4.743086        -0.697283        -0.122413
 C         4.369216        -2.131578         0.008008
 C         2.836012        -2.210293         0.385723
 C         2.252680        -1.175103        -0.659016
 H        -0.464480         0.590852        -1.355018
 H        -0.555801        -0.844706        -0.262710
 H        -0.503087         0.941874         0.352865
 H         2.559212         1.977884        -0.803879
 H         3.811728        -0.190728        -1.884344
 H         4.496649        -2.787712        -0.900701
 H         5.180233        -2.463549         0.761734
 H         2.256843        -3.140742         0.446523
 H         2.864627        -1.755471         1.452369
 H         1.848853        -1.555083        -1.586408
