19
Iteration:  1289charge 0 multiplicity 1
 C         0.018734         0.094751        -0.091656
 C         1.450239        -0.022221        -0.190234
 O         2.169628         0.601184         0.971600
 C         2.594859         0.993746        -0.327384
 C         3.554142        -0.098978        -0.844634
 O         4.405763        -0.555436         0.244412
 C         4.242954        -2.012413         0.054291
 C         2.718051        -2.482520        -0.306960
 C         2.232573        -1.113784        -0.904283
 H        -0.492351        -0.905525         0.001484
 H        -0.137136         0.895223         0.636106
 H        -0.357885         0.476130        -1.047462
 H         2.581588         2.050843        -0.526433
 H         4.023736         0.017934        -1.823946
 H         4.840809        -2.382967        -0.731903
 H         4.751609        -2.541587         0.899448
 H         2.727005        -3.292330        -0.927553
 H         2.120138        -2.602796         0.598081
 H         1.856200        -1.067648        -1.907667
