19
Iteration:  2658charge 0 multiplicity 1
 C        -0.104414         0.161241        -0.297083
 C         1.473824         0.038260        -0.163224
 O         2.047035         0.441981         1.142104
 C         2.629426         0.984153        -0.070666
 C         3.515615        -0.071705        -0.893884
 O         4.668182        -0.818608        -0.495341
 C         4.159668        -2.009797         0.286385
 C         2.669201        -2.236497         0.049852
 C         2.377585        -1.007701        -0.907277
 H        -0.385908        -0.581291        -0.999551
 H        -0.625670        -0.138217         0.642770
 H        -0.378995         1.137750        -0.696990
 H         2.630024         2.094445        -0.241479
 H         3.918605         0.584477        -1.678016
 H         4.689782        -2.977497        -0.007474
 H         4.405333        -1.846735         1.321958
 H         2.577197        -3.136080        -0.556857
 H         2.006652        -2.237063         0.879520
 H         1.937323        -1.498579        -1.785786
