19
Iteration:  2021
 C        -0.004152         0.127495        -0.365673
 C         1.471814         0.028662        -0.177853
 O         1.989659         0.324467         1.097052
 C         2.545522         1.033645        -0.073447
 C         3.519181         0.025657        -0.862568
 O         4.598950        -0.694132        -0.157177
 C         4.265216        -2.076268         0.031378
 C         2.737157        -2.268871         0.013141
 C         2.298168        -1.026370        -0.877858
 H        -0.584010        -0.646715         0.234912
 H        -0.265264         1.051506         0.142411
 H        -0.377450         0.157360        -1.410639
 H         2.467730         2.141017        -0.305296
 H         3.928081         0.513335        -1.748496
 H         4.564179        -2.729021        -0.915888
 H         4.668271        -2.367624         1.006957
 H         2.603511        -3.299835        -0.227911
 H         2.499577        -2.048496         1.071299
 H         1.944801        -1.313927        -1.844735
