19
Iteration:   953
 C        -0.022514         0.193903        -0.192942
 C         1.461964         0.069902        -0.141967
 O         2.260877         0.420484         1.076378
 C         2.537607         0.999866        -0.290730
 C         3.428874        -0.076380        -0.952829
 O         4.457470        -0.654129        -0.133346
 C         4.205066        -2.089266         0.290739
 C         2.794669        -2.342149        -0.155098
 C         2.273135        -1.040308        -0.899828
 H        -0.454920        -0.500584         0.553459
 H        -0.303864         1.173147         0.081196
 H        -0.396386        -0.085580        -1.203427
 H         2.652726         2.099453        -0.366176
 H         3.882744         0.112670        -1.935890
 H         5.013546        -2.817067        -0.155888
 H         4.301755        -2.041694         1.382737
 H         2.743207        -3.158094        -0.875995
 H         2.045968        -2.750846         0.667898
 H         1.741617        -1.203101        -1.840594
