19
Iteration:  2078charge 0 multiplicity 1
 C        -0.032885         0.189495        -0.376796
 C         1.399471         0.016373        -0.183610
 O         1.997051         0.368141         1.098174
 C         2.503895         0.967807        -0.147547
 C         3.496821        -0.070487        -0.835797
 O         4.549150        -0.661384        -0.076826
 C         4.302663        -2.084168        -0.125676
 C         2.791311        -2.219601         0.073544
 C         2.383165        -1.039062        -0.764453
 H        -0.510682        -0.798936        -0.180468
 H        -0.456497         1.015194         0.206329
 H        -0.145837         0.630929        -1.413557
 H         2.608025         2.024793        -0.096586
 H         3.839943         0.209200        -1.822296
 H         4.652023        -2.609002        -1.197518
 H         4.942397        -2.648296         0.631458
 H         2.388163        -3.186378        -0.208281
 H         2.448323        -1.914714         1.087474
 H         2.219271        -1.482185        -1.731712
