19
Iteration:  1587charge 0 multiplicity 1
 C         0.034267         0.022442        -0.307547
 C         1.533283         0.024633        -0.118114
 O         2.150688         0.459394         1.088178
 C         2.531925         1.075470        -0.247826
 C         3.506610        -0.059431        -0.869235
 O         4.538506        -0.641471        -0.126455
 C         4.134317        -2.091193         0.127516
 C         2.607074        -2.309725        -0.029364
 C         2.352758        -1.009383        -0.880059
 H        -0.310776        -0.291722         0.664657
 H        -0.245593         1.029672        -0.617281
 H        -0.183884        -0.651337        -1.172780
 H         2.467054         2.155090        -0.236701
 H         3.744940         0.199578        -1.926947
 H         4.672257        -2.602770        -0.626525
 H         4.579495        -2.304389         1.158754
 H         2.512147        -3.355104        -0.364895
 H         2.042948        -2.419395         0.940031
 H         2.155164        -1.002080        -2.022495
