19
Iteration:   898
 C        -0.091861         0.256585        -0.303438
 C         1.461327         0.091365        -0.263044
 O         1.984303         0.178438         1.025544
 C         2.699651         0.922103         0.058930
 C         3.497788        -0.090675        -0.858907
 O         4.598119        -0.852476        -0.591698
 C         4.275471        -1.793287         0.388556
 C         2.736354        -2.139835         0.053270
 C         2.282129        -1.090073        -0.927321
 H        -0.405991        -0.759983         0.017303
 H        -0.377952         0.808298         0.551114
 H        -0.506920         0.583492        -1.254327
 H         2.776842         1.951542         0.391178
 H         3.752681         0.354135        -1.821048
 H         5.058602        -2.587395         0.371153
 H         4.307543        -1.411501         1.409803
 H         2.517872        -3.139167        -0.258338
 H         2.156914        -1.851973         1.032506
 H         1.934975        -1.379042        -1.896784
