19
Iteration:   586charge 0 multiplicity 1
 C        -0.070657         0.096254        -0.307114
 C         1.427124         0.093255        -0.222015
 O         1.974161         0.218893         1.063463
 C         2.773770         0.915593         0.023384
 C         3.519187        -0.056961        -0.827268
 O         4.676358        -0.790135        -0.534002
 C         4.107638        -1.850927         0.362531
 C         2.697432        -2.150955         0.018329
 C         2.331099        -0.974578        -0.947124
 H        -0.467627        -0.453052         0.483989
 H        -0.447043         1.076152        -0.245276
 H        -0.493492        -0.385154        -1.192455
 H         3.040909         1.946548         0.141210
 H         3.730488         0.397209        -1.808266
 H         4.716399        -2.752054         0.307213
 H         4.153339        -1.459320         1.342331
 H         2.594937        -3.180887        -0.411172
 H         2.227537        -2.014307         0.969057
 H         1.975066        -1.231524        -1.997903
