19
Iteration:  1686
 C        -0.099603         0.279473        -0.506465
 C         1.388153         0.067721        -0.158431
 O         2.129099         0.273056         1.109201
 C         2.599975         0.931124        -0.109272
 C         3.492674        -0.090206        -0.858291
 O         4.594116        -0.612008        -0.177939
 C         4.281461        -2.014116         0.013989
 C         2.823996        -2.252229         0.139304
 C         2.175603        -1.094480        -0.762595
 H        -0.486057        -0.724380        -0.410111
 H        -0.607474         0.885480         0.212084
 H        -0.279853         0.666689        -1.556486
 H         2.636923         2.011312        -0.150150
 H         3.798584         0.109440        -1.909546
 H         4.728468        -2.565841        -0.825590
 H         4.898464        -2.327257         0.922411
 H         2.517167        -3.228224        -0.325005
 H         2.358563        -2.324931         1.153852
 H         1.781465        -1.333674        -1.819576
