19
Iteration:  4820charge 0 multiplicity 1
 C        -0.128634         0.313408        -0.412890
 C         1.379508         0.006915        -0.363961
 O         2.022138         0.407985         1.024905
 C         2.570221         0.848206        -0.234966
 C         3.459058        -0.226135        -0.956597
 O         4.638752        -0.687538        -0.347404
 C         4.398899        -1.954944         0.241333
 C         2.811770        -2.088089         0.438172
 C         2.247858        -1.229707        -0.774480
 H        -0.605547        -0.122114        -1.335680
 H        -0.608515        -0.100649         0.449757
 H        -0.147438         1.413198        -0.448659
 H         2.587501         1.958509        -0.495003
 H         3.515704         0.137491        -2.009292
 H         4.867562        -2.740102        -0.340753
 H         4.965089        -1.781083         1.217519
 H         2.462093        -3.088475         0.306243
 H         2.458498        -1.607305         1.354764
 H         1.929964        -1.965351        -1.504471
