19
Iteration:  4377
 C         0.034967         0.061154        -0.353525
 C         1.478298        -0.001366        -0.138029
 O         2.190513         0.564342         0.997228
 C         2.556917         0.967110        -0.299836
 C         3.431745        -0.166049        -1.068173
 O         4.600057        -0.747450        -0.380070
 C         4.175960        -1.784957         0.463690
 C         2.687025        -2.259618         0.151666
 C         2.243876        -1.194866        -0.720497
 H        -0.206812         0.188303        -1.449455
 H        -0.501063        -0.949443         0.078784
 H        -0.360261         0.930297         0.250301
 H         2.587938         2.058414        -0.548950
 H         3.698516         0.081025        -2.104729
 H         4.990509        -2.536848         0.228590
 H         4.181704        -1.610790         1.572720
 H         2.830917        -3.054470        -0.572090
 H         2.148018        -2.503925         1.071463
 H         1.544776        -1.454442        -1.550325
