19
Iteration:  2634
 C         0.003927         0.262103        -0.297465
 C         1.428331         0.054506        -0.082691
 O         2.172243         0.452239         1.067522
 C         2.574580         0.975800        -0.181268
 C         3.425282        -0.141180        -0.898044
 O         4.579215        -0.742210        -0.283718
 C         4.210435        -1.941536         0.314476
 C         2.774952        -2.392772        -0.203380
 C         2.212330        -1.044993        -0.826396
 H        -0.351782        -0.639105        -0.799680
 H        -0.445916         0.072751         0.760142
 H        -0.282366         1.183140        -0.785790
 H         2.755878         2.020645        -0.107988
 H         3.831301         0.175812        -1.856626
 H         4.932170        -2.754628         0.126432
 H         4.208157        -1.869455         1.399835
 H         2.786336        -3.230457        -0.868503
 H         2.151540        -2.616995         0.696285
 H         1.698941        -1.290908        -1.729870
