19
Iteration:  1083charge 0 multiplicity 1
 C         0.001397         0.042937        -0.132132
 C         1.461662         0.105149        -0.323362
 O         2.145929         0.270899         1.028814
 C         2.616948         0.969834        -0.106954
 C         3.552615        -0.072860        -0.904634
 O         4.697412        -0.717480        -0.348420
 C         4.062850        -1.882169         0.403417
 C         2.608797        -2.170250        -0.035890
 C         2.239738        -1.051460        -1.034364
 H        -0.265752        -0.803105         0.523049
 H        -0.346577         0.856775         0.430757
 H        -0.591142         0.018924        -1.040985
 H         2.671188         2.086748        -0.133893
 H         3.877985         0.299755        -1.888548
 H         4.736764        -2.718278         0.384738
 H         4.075043        -1.657380         1.425042
 H         2.607900        -3.108077        -0.588600
 H         1.942870        -2.178110         0.928740
 H         2.140242        -1.277378        -2.051382
