19
Iteration:  4992
 C         0.089111         0.195304        -0.237089
 C         1.453342         0.031785        -0.220845
 O         2.175270         0.455391         0.937416
 C         2.557194         0.910086        -0.447073
 C         3.413308        -0.191748        -1.024034
 O         4.456805        -0.598649        -0.154997
 C         4.250982        -1.857135         0.380831
 C         2.751541        -2.256303         0.218458
 C         2.247894        -1.232197        -0.887233
 H        -0.071449        -0.124935        -1.282431
 H        -0.336153        -0.647693         0.408590
 H        -0.404904         1.132826         0.076426
 H         2.695395         2.037565        -0.413447
 H         3.773689        -0.128063        -2.026842
 H         4.863530        -2.616799        -0.083971
 H         4.564436        -1.874420         1.398141
 H         2.673227        -3.218551        -0.202150
 H         2.180559        -2.182104         1.181553
 H         1.649722        -1.604701        -1.696603
