19
Iteration:  3211
 C        -0.053019         0.475306        -0.281971
 C         1.357645        -0.062815        -0.090844
 O         2.131503         0.430318         0.961758
 C         2.577239         0.862852        -0.388844
 C         3.426273        -0.299630        -0.980675
 O         4.655307        -0.737883        -0.520899
 C         4.224226        -1.670347         0.620657
 C         2.913316        -2.365381         0.107559
 C         2.159406        -1.271392        -0.748075
 H        -0.118253         0.964148        -1.253433
 H        -1.080933        -0.057985        -0.484578
 H        -0.187582         1.221278         0.555128
 H         2.572670         1.941009        -0.242095
 H         3.532334        -0.153525        -2.101815
 H         4.983437        -2.434426         0.531564
 H         4.193149        -1.290872         1.650285
 H         2.953060        -3.244099        -0.551276
 H         2.373365        -2.785268         0.985617
 H         1.796794        -1.598869        -1.727744
