19
Iteration:  1049charge 0 multiplicity 1
 C        -0.027458         0.009397        -0.059090
 C         1.491298         0.047711        -0.195292
 O         2.329876         0.536809         1.005520
 C         2.608258         1.063151        -0.286420
 C         3.495589        -0.092597        -0.951911
 O         4.449916        -0.618061        -0.019829
 C         4.081806        -2.041222         0.330337
 C         2.710906        -2.376855        -0.236518
 C         2.255293        -1.054185        -0.985258
 H        -0.349638        -0.701436         0.717380
 H        -0.392568         1.003427         0.070224
 H        -0.386107        -0.403181        -1.007651
 H         2.620368         2.167226        -0.422189
 H         3.888779         0.152537        -1.952422
 H         4.840904        -2.621453        -0.125811
 H         3.990610        -2.058649         1.382646
 H         2.818283        -3.099233        -1.024057
 H         1.981138        -2.892599         0.484731
 H         1.991289        -1.228747        -1.998194
