19
Iteration:  4561
 C        -0.059361         0.239624        -0.371662
 C         1.414699         0.005317        -0.277919
 O         2.020078         0.466373         0.936837
 C         2.594441         0.890111        -0.348734
 C         3.470129        -0.182896        -0.956082
 O         4.475418        -0.597994        -0.174742
 C         4.332248        -2.026360         0.078301
 C         2.860429        -2.158228         0.443016
 C         2.291965        -1.259219        -0.692998
 H        -0.326597         0.730560        -1.279946
 H        -0.767191        -0.539463        -0.193922
 H        -0.159764         1.058918         0.276534
 H         2.838074         1.909576        -0.545671
 H         3.862722        -0.015512        -2.028601
 H         4.486849        -2.785781        -0.722764
 H         5.163545        -2.019070         0.785798
 H         2.459824        -3.204590         0.387513
 H         2.647832        -1.718851         1.502345
 H         1.868438        -1.737704        -1.582647
