19
Iteration:  4382charge 0 multiplicity 1
 C         0.009805         0.080001        -0.351865
 C         1.485329        -0.013000        -0.105521
 O         2.185864         0.550670         0.993076
 C         2.568181         0.941062        -0.376640
 C         3.409881        -0.180002        -1.018770
 O         4.607589        -0.695855        -0.383808
 C         4.230827        -1.831351         0.456945
 C         2.654855        -2.257694         0.142458
 C         2.248667        -1.173405        -0.717498
 H        -0.117273         0.097925        -1.428118
 H        -0.500610        -0.690908         0.088284
 H        -0.421518         0.881345         0.218222
 H         2.507400         2.013845        -0.439004
 H         3.743947         0.193943        -2.005564
 H         4.864945        -2.694253         0.272061
 H         4.232364        -1.521688         1.496347
 H         2.854595        -3.153733        -0.483117
 H         2.059068        -2.442108         1.047937
 H         1.660362        -1.473332        -1.591744
