19
Iteration:   555
 C        -0.075606         0.326083        -0.217312
 C         1.385244        -0.006037        -0.244029
 O         2.004371         0.330444         1.065382
 C         2.530968         0.995355        -0.125896
 C         3.485781        -0.113474        -0.850641
 O         4.651435        -0.768764        -0.353256
 C         4.234575        -1.915815         0.416572
 C         2.866020        -2.312587        -0.151734
 C         2.311015        -1.069466        -0.906312
 H        -0.572540        -0.476411         0.347673
 H        -0.067071         1.164443         0.493194
 H        -0.578405         0.647052        -1.169845
 H         2.475616         2.033443        -0.364226
 H         3.779702         0.214550        -1.852636
 H         4.980179        -2.792525         0.205741
 H         4.284649        -1.699109         1.442888
 H         3.024397        -3.133871        -0.906709
 H         2.262047        -2.828882         0.547522
 H         1.925146        -1.297574        -1.908593
