19
Iteration:  2474charge 0 multiplicity 1
 C        -0.076202         0.435719        -0.269760
 C         1.381485         0.072849        -0.206345
 O         2.091694         0.321211         0.941389
 C         2.580219         0.940774        -0.288712
 C         3.444572        -0.205013        -0.892488
 O         4.611189        -0.696259        -0.265347
 C         4.315739        -1.968841         0.320952
 C         2.821232        -2.314493         0.144021
 C         2.224712        -1.138071        -0.899647
 H        -0.503942         1.130689        -0.994370
 H        -0.599487        -0.537185        -0.421162
 H        -0.372898         0.629646         0.747740
 H         2.635513         1.992071        -0.282304
 H         3.819439         0.068166        -1.911374
 H         5.069691        -2.671286         0.010902
 H         4.514120        -1.844843         1.381176
 H         2.759198        -3.396651        -0.237610
 H         2.315451        -2.078322         1.053071
 H         1.680360        -1.498692        -1.787813
