19
Iteration:  4229charge 0 multiplicity 1
 C        -0.048104         0.079314        -0.276040
 C         1.384865         0.102200        -0.159594
 O         1.985475         0.683614         1.005135
 C         2.587244         0.998192        -0.296401
 C         3.526176        -0.210893        -0.872631
 O         4.649542        -0.863223        -0.470060
 C         4.259342        -1.883499         0.478559
 C         2.802481        -2.333060         0.081600
 C         2.259750        -1.080101        -0.813067
 H        -0.414318        -0.488230        -1.201712
 H        -0.367642        -0.609997         0.533249
 H        -0.566542         1.087432        -0.279397
 H         2.557010         2.066025        -0.607357
 H         3.849854         0.084699        -1.923256
 H         5.092863        -2.659481         0.336677
 H         4.335351        -1.487447         1.526634
 H         2.885487        -3.249057        -0.642164
 H         2.169966        -2.611577         0.951709
 H         1.899442        -1.644472        -1.691713
