19
Iteration:   253charge 0 multiplicity 1
 C        -0.060900         0.116689        -0.071476
 C         1.479219         0.089564        -0.311429
 O         1.968563         0.297023         1.000637
 C         2.634230         1.020939        -0.069719
 C         3.618994        -0.103864        -0.936501
 O         4.670611        -0.741548        -0.223188
 C         4.075668        -1.907703         0.432502
 C         2.712309        -2.284462        -0.244351
 C         2.332525        -0.997695        -1.045968
 H        -0.384064         1.120804         0.203055
 H        -0.615666        -0.262126        -0.858473
 H        -0.192360        -0.496728         0.733724
 H         2.707657         2.105223         0.179188
 H         3.973351         0.353204        -1.887771
 H         4.745341        -2.743006         0.300345
 H         4.078046        -1.633645         1.517400
 H         2.869646        -3.160070        -0.856133
 H         2.045092        -2.480747         0.520903
 H         1.906675        -1.223760        -2.057099
