19
Iteration:  4287
 C        -0.038206         0.312695        -0.268316
 C         1.416374        -0.053692        -0.177346
 O         2.291075         0.261773         0.943320
 C         2.527883         0.888276        -0.365020
 C         3.432089        -0.222959        -1.084627
 O         4.588539        -0.575852        -0.262860
 C         4.145338        -1.704592         0.583168
 C         2.818264        -2.269121         0.073294
 C         2.207516        -1.221104        -0.886090
 H        -0.557365         0.145495        -1.219240
 H        -0.550975        -0.176916         0.659570
 H        -0.106121         1.351914         0.123980
 H         2.611705         1.971690        -0.461957
 H         3.680655        -0.118843        -2.159190
 H         4.988733        -2.437700         0.583574
 H         3.934618        -1.333698         1.623620
 H         2.830682        -3.130515        -0.543317
 H         2.090655        -2.481595         0.918656
 H         1.764225        -1.850832        -1.644827
