19
Iteration:  3929charge 0 multiplicity 1
 C        -0.106095         0.113550        -0.362096
 C         1.408395         0.055951        -0.308819
 O         1.907858         0.627676         0.944435
 C         2.554004         0.983831        -0.231097
 C         3.500680        -0.214430        -0.794077
 O         4.667569        -0.700206        -0.209144
 C         4.376751        -2.098260         0.014242
 C         2.776191        -2.200475         0.261905
 C         2.319233        -1.121781        -0.657944
 H        -0.572033        -0.029681        -1.310302
 H        -0.451325        -0.720208         0.306949
 H        -0.402393         1.088309        -0.011320
 H         2.722349         1.937548        -0.661278
 H         3.658456         0.185113        -1.815917
 H         4.628528        -2.792874        -0.824988
 H         4.924955        -2.380362         0.929817
 H         2.467323        -3.263122         0.179317
 H         2.601528        -1.814141         1.300621
 H         2.125935        -1.590096        -1.643040
