19
Iteration:   417
 C        -0.029566         0.027167        -0.304649
 C         1.472809        -0.027183        -0.118526
 O         2.300101         0.255432         1.087837
 C         2.700743         0.950870        -0.093112
 C         3.541052        -0.047421        -0.979194
 O         4.580727        -0.669074        -0.302822
 C         4.050086        -1.837911         0.436422
 C         2.603859        -2.176287        -0.104938
 C         2.213542        -1.001107        -0.989216
 H        -0.799220        -0.182476         0.467390
 H        -0.370957         1.025541        -0.658115
 H        -0.330613        -0.633191        -1.085216
 H         2.921705         2.002972        -0.144882
 H         3.727222         0.359166        -1.984799
 H         4.655606        -2.660060         0.156072
 H         4.171735        -1.673974         1.527475
 H         2.493243        -3.204006        -0.559990
 H         1.945568        -2.214086         0.792102
 H         1.737711        -1.190669        -1.951863
