19
Iteration:  4835
 C        -0.121534         0.404416        -0.428365
 C         1.326870        -0.047550        -0.218071
 O         1.954664         0.340925         0.913916
 C         2.528581         0.879751        -0.289284
 C         3.456203        -0.205870        -0.950730
 O         4.728095        -0.652899        -0.398418
 C         4.334541        -1.989822         0.292313
 C         2.883716        -2.064295         0.425117
 C         2.319179        -1.248914        -0.715002
 H        -0.708111        -0.116331        -1.258557
 H        -0.763674         0.070015         0.600473
 H        -0.391507         1.464892        -0.559253
 H         2.599318         1.957831        -0.264690
 H         3.764569        -0.028471        -1.969073
 H         4.541574        -2.811228        -0.460579
 H         4.856441        -2.316946         1.210980
 H         2.600560        -3.171629         0.698286
 H         2.671429        -1.597049         1.388094
 H         2.039728        -1.524205        -1.757070
