19
Iteration:  4805
 C         0.001596         0.218636        -0.431140
 C         1.435595        -0.011850        -0.212518
 O         2.038286         0.495840         0.937144
 C         2.611669         0.928371        -0.276952
 C         3.343165        -0.205989        -0.960031
 O         4.522626        -0.662217        -0.367863
 C         4.345392        -1.947934         0.323896
 C         2.835438        -2.158092         0.336476
 C         2.249145        -1.230992        -0.704687
 H        -0.232343        -0.101179        -1.399906
 H        -0.535291        -0.368271         0.287829
 H        -0.318337         1.238819        -0.244206
 H         2.916575         1.939771        -0.241284
 H         3.623743         0.050419        -1.999364
 H         4.817887        -2.765468        -0.318935
 H         4.797596        -2.054182         1.318791
 H         2.619569        -3.219350         0.170362
 H         2.480465        -1.887543         1.344135
 H         1.849177        -1.601843        -1.654764
