19
Iteration:  3479
 C        -0.065412         0.169467        -0.190729
 C         1.422270         0.052841        -0.206682
 O         2.167535         0.313990         0.952447
 C         2.680451         0.868922        -0.285551
 C         3.463087        -0.204117        -1.050467
 O         4.639383        -0.721901        -0.456942
 C         4.196480        -1.697945         0.560555
 C         2.679582        -2.188620         0.195471
 C         2.216850        -1.212932        -0.924122
 H        -0.465928         0.080482        -1.240557
 H        -0.514656        -0.482792         0.563834
 H        -0.443271         1.177557         0.100870
 H         2.967314         1.933683        -0.383577
 H         3.708609         0.150948        -2.062699
 H         5.012762        -2.407704         0.659777
 H         4.252384        -1.112112         1.467071
 H         2.746743        -3.233858        -0.094597
 H         1.924759        -2.013266         1.022341
 H         1.650482        -1.356972        -1.877905
