19
Iteration:  2345
 C        -0.112155         0.093604        -0.323683
 C         1.383909         0.118396        -0.204193
 O         2.004203         0.448222         0.990249
 C         2.627208         1.008119        -0.161202
 C         3.515853        -0.129468        -0.796644
 O         4.681793        -0.702141        -0.037479
 C         4.271113        -2.174657        -0.121536
 C         2.743755        -2.157096         0.138327
 C         2.280650        -1.015183        -0.826266
 H        -0.489053        -0.624223        -1.081484
 H        -0.492134        -0.239361         0.621633
 H        -0.553468         1.026315        -0.677019
 H         2.729378         2.075154        -0.155769
 H         3.898579         0.234885        -1.742614
 H         4.394294        -2.399097        -1.164931
 H         4.925106        -2.660473         0.590124
 H         2.306843        -3.148509        -0.115788
 H         2.550639        -2.056130         1.164258
 H         2.093969        -1.393855        -1.851175
