19
Iteration:  4439charge 0 multiplicity 1
 C        -0.027787         0.388375        -0.190778
 C         1.404402        -0.027195        -0.297721
 O         2.041860         0.351428         0.876931
 C         2.529587         0.878545        -0.404598
 C         3.389408        -0.243627        -0.969117
 O         4.618682        -0.539241        -0.158008
 C         4.318489        -1.889168         0.239922
 C         2.812674        -2.254465         0.226161
 C         2.314694        -1.273351        -0.777206
 H        -0.603199        -0.051688        -0.965820
 H        -0.438546         0.018916         0.666610
 H        -0.137959         1.432900        -0.450110
 H         2.395796         1.964938        -0.379712
 H         3.762522         0.088983        -1.976575
 H         4.900942        -2.635657        -0.256449
 H         4.454267        -2.113311         1.327748
 H         2.658109        -3.332648         0.308677
 H         2.409287        -1.913781         1.270214
 H         1.995982        -1.731861        -1.697506
