19
Iteration:  3606charge 0 multiplicity 1
 C        -0.097251         0.115083        -0.311459
 C         1.433049         0.043650        -0.274487
 O         1.916805         0.468655         0.921612
 C         2.595527         0.977226        -0.285120
 C         3.503766        -0.169963        -0.873497
 O         4.742438        -0.718677        -0.159236
 C         4.252017        -2.103584         0.006218
 C         2.806709        -2.056017         0.346227
 C         2.238284        -1.101743        -0.749916
 H        -0.407766         0.222987        -1.346954
 H        -0.542101        -0.811849        -0.072707
 H        -0.481008         0.886859         0.322709
 H         2.757572         2.095019        -0.292584
 H         3.822169         0.088792        -1.891075
 H         4.548748        -2.483542        -0.992557
 H         4.825570        -2.529669         0.830714
 H         2.207920        -2.967570         0.506824
 H         2.944980        -1.524492         1.263130
 H         1.853351        -1.758223        -1.543205
