19
Iteration:  2002
 C        -0.060284         0.231749        -0.413931
 C         1.398222        -0.012217        -0.070117
 O         2.156649         0.399710         1.139534
 C         2.533552         0.905808        -0.107453
 C         3.426098        -0.109421        -0.799429
 O         4.561207        -0.594161        -0.178808
 C         4.342229        -2.052248         0.086786
 C         2.765481        -2.311947        -0.109812
 C         2.283776        -1.057124        -0.852614
 H        -0.720480        -0.495579         0.121222
 H        -0.426545         1.235134        -0.282239
 H        -0.080400         0.078361        -1.540186
 H         2.484287         1.985622        -0.034789
 H         3.703036         0.215375        -1.812969
 H         4.968688        -2.580612        -0.594801
 H         4.509247        -2.134801         1.186812
 H         2.492501        -3.013438        -0.889638
 H         2.168941        -2.294657         0.825795
 H         2.012474        -1.347810        -1.859399
