19
Iteration:  1440
 C        -0.081014         0.250664        -0.533173
 C         1.362799         0.007041        -0.092430
 O         1.904880         0.418096         1.223574
 C         2.517215         0.980969        -0.007840
 C         3.472780        -0.038208        -0.751726
 O         4.635363        -0.772094        -0.373384
 C         4.423383        -2.136907         0.001226
 C         2.830406        -2.184178         0.058512
 C         2.340766        -1.103309        -0.821064
 H        -0.798493        -0.523155        -0.285922
 H        -0.330474         1.123138         0.034588
 H        -0.113828         0.510802        -1.573314
 H         2.536622         2.060105        -0.068734
 H         3.804324         0.411933        -1.699498
 H         4.804736        -2.722737        -0.808525
 H         4.852210        -2.370136         1.008474
 H         2.537714        -3.193290        -0.397536
 H         2.408537        -1.907757         1.045210
 H         2.117493        -1.371178        -1.811162
