19
Iteration:  1835charge 0 multiplicity 1
 C        -0.076769         0.304055        -0.205727
 C         1.412280         0.043765        -0.200439
 O         1.967444         0.415927         1.048540
 C         2.643778         0.910703        -0.211653
 C         3.458844        -0.152851        -0.876386
 O         4.563506        -0.654662        -0.106520
 C         4.358870        -1.949781         0.158580
 C         2.806867        -2.357807        -0.136915
 C         2.252670        -1.106233        -0.890135
 H        -0.604263        -0.569098         0.366098
 H        -0.197704         1.315974         0.332705
 H        -0.297832         0.200120        -1.258916
 H         2.766335         1.975386        -0.237888
 H         3.788011         0.090884        -1.888125
 H         5.108380        -2.601687        -0.255057
 H         4.437484        -1.942714         1.279014
 H         2.832473        -3.197858        -0.826337
 H         2.383927        -2.623563         0.848979
 H         1.866253        -1.455725        -1.798553
