19
Iteration:  1871charge 0 multiplicity 1
 C        -0.046263        -0.022087        -0.200571
 C         1.461251        -0.031755        -0.160549
 O         2.228196         0.344724         0.992787
 C         2.575221         1.058422        -0.188878
 C         3.540480         0.007601        -0.878527
 O         4.611392        -0.770520        -0.269476
 C         4.102915        -1.923942         0.308755
 C         2.644742        -2.205724        -0.063642
 C         2.321446        -0.967106        -0.920700
 H        -0.547187        -0.980309         0.051472
 H        -0.615429         0.734890         0.324263
 H        -0.356420         0.177234        -1.283641
 H         2.629942         2.190109        -0.113875
 H         4.006163         0.451354        -1.778725
 H         4.837460        -2.700201         0.245037
 H         3.934482        -1.777860         1.466482
 H         2.445290        -3.086214        -0.760624
 H         1.913482        -2.393621         0.765063
 H         1.995560        -1.118315        -1.962938
