19
Iteration:  4569charge 0 multiplicity 1
 C        -0.023767         0.288282        -0.404903
 C         1.371261        -0.007716        -0.206774
 O         2.074773         0.409492         0.927751
 C         2.589870         0.868245        -0.337347
 C         3.405465        -0.189321        -1.045766
 O         4.520663        -0.583083        -0.162119
 C         4.383627        -1.973831         0.151275
 C         2.817510        -2.206016         0.455629
 C         2.251772        -1.212328        -0.761312
 H        -0.201292         0.554912        -1.490946
 H        -0.727784        -0.498986        -0.074561
 H        -0.261482         1.103538         0.395112
 H         2.643167         1.966184        -0.483288
 H         3.728894        -0.104599        -2.065637
 H         4.667324        -2.588426        -0.755758
 H         5.070939        -2.257270         1.047499
 H         2.352713        -3.180435         0.378779
 H         2.739009        -1.622606         1.442925
 H         1.772480        -1.730681        -1.576125
