19
Iteration:  3997charge 0 multiplicity 1
 C        -0.059140         0.279808        -0.249258
 C         1.427200         0.031435        -0.197842
 O         2.147198         0.371429         0.961105
 C         2.609954         0.785355        -0.410982
 C         3.445028        -0.162693        -1.023096
 O         4.448895        -0.527256        -0.125356
 C         4.314975        -1.868075         0.308402
 C         2.806929        -2.255312         0.195974
 C         2.288065        -1.281911        -0.852771
 H        -0.363722         0.435193        -1.308115
 H        -0.609945        -0.621341         0.075593
 H        -0.271586         1.268696         0.166333
 H         2.568885         1.857169        -0.441979
 H         3.846498         0.069348        -2.058218
 H         4.974696        -2.562594        -0.250225
 H         4.536129        -1.747793         1.349689
 H         2.621629        -3.331871        -0.099694
 H         2.201881        -2.005549         1.058342
 H         1.824917        -1.540359        -1.828962
