19
Iteration:   472
 C        -0.066217         0.129471        -0.014233
 C         1.443884         0.028140        -0.244119
 O         2.101521         0.439995         1.036421
 C         2.589007         0.917602        -0.202308
 C         3.595632        -0.109300        -0.928866
 O         4.640062        -0.765335        -0.247773
 C         3.994249        -1.828060         0.495786
 C         2.778073        -2.320043        -0.321952
 C         2.352236        -1.046166        -1.015833
 H        -0.422605        -0.850859         0.385026
 H        -0.308237         0.889015         0.768084
 H        -0.639934         0.277698        -0.906507
 H         2.843704         1.946164        -0.402891
 H         3.936524         0.300417        -1.899004
 H         4.691556        -2.569095         0.752272
 H         3.628997        -1.351036         1.454519
 H         3.011753        -3.031364        -1.109851
 H         2.018845        -2.703174         0.418574
 H         2.000852        -1.292177        -2.026535
