19
Iteration:   522
 C         0.001834         0.383772        -0.321323
 C         1.516054        -0.045827        -0.017740
 O         2.341111         0.320182         1.147631
 C         2.550209         0.899537        -0.213518
 C         3.367827        -0.227616        -1.037067
 O         4.428397        -0.521620        -0.109428
 C         4.111959        -1.798742         0.431217
 C         2.923375        -2.461743        -0.315045
 C         2.140702        -1.169971        -0.915760
 H        -0.678000        -0.495808        -0.305268
 H        -0.271835         1.044050         0.512367
 H        -0.143725         0.955525        -1.309094
 H         2.396209         1.923036        -0.461279
 H         3.711473         0.005499        -2.049657
 H         5.091067        -2.475216         0.272627
 H         3.888549        -1.641384         1.444971
 H         3.287447        -3.081498        -1.195383
 H         2.255353        -2.944887         0.326987
 H         1.674235        -1.349796        -1.884584
