19
Iteration:  2503
 C        -0.005183         0.044038        -0.238679
 C         1.489043        -0.001543        -0.143161
 O         2.236065         0.540400         0.977152
 C         2.672910         0.977427        -0.255731
 C         3.485573        -0.129974        -0.923288
 O         4.569344        -0.758045        -0.305420
 C         4.116746        -1.890896         0.427350
 C         2.578161        -2.258013         0.023781
 C         2.271638        -1.054837        -0.934626
 H        -0.415383         0.486093        -1.123586
 H        -0.271417        -1.029597        -0.124600
 H        -0.382102         0.517949         0.650243
 H         2.722071         2.055659        -0.425352
 H         3.854505         0.258522        -1.875270
 H         4.737944        -2.762044         0.024414
 H         4.235902        -1.703470         1.512019
 H         2.753340        -3.155361        -0.527672
 H         1.781550        -2.457553         0.748987
 H         1.661102        -1.285950        -1.800015
