19
Iteration:   572
 C        -0.088893         0.223362        -0.198780
 C         1.439044         0.094685        -0.301913
 O         1.903508         0.320845         1.065294
 C         2.599678         0.936335        -0.004483
 C         3.574268        -0.068119        -0.911768
 O         4.703215        -0.841517        -0.459969
 C         4.270347        -1.902377         0.410474
 C         2.740157        -2.253115        -0.073146
 C         2.299049        -1.045926        -0.946828
 H        -0.376644        -0.575031         0.514794
 H        -0.440303         1.190380         0.151317
 H        -0.560066        -0.022556        -1.137051
 H         2.722869         2.030075         0.202045
 H         3.850614         0.544726        -1.791723
 H         4.982298        -2.643997         0.302806
 H         4.210739        -1.511406         1.502804
 H         2.693354        -3.187470        -0.625911
 H         1.998444        -2.284169         0.781259
 H         2.071714        -1.364902        -2.000483
