19
Iteration:  2754
 C        -0.108770         0.513563        -0.340611
 C         1.407665         0.060825        -0.082566
 O         2.107872         0.426543         1.040656
 C         2.620226         0.896397        -0.250796
 C         3.361266        -0.271889        -0.916998
 O         4.574047        -0.613921        -0.306068
 C         4.327991        -1.882381         0.326422
 C         2.876666        -2.504311        -0.064256
 C         2.214086        -1.261907        -0.759981
 H        -0.012667         1.422785        -0.892451
 H        -0.810197        -0.372515        -0.746883
 H        -0.373537         0.870929         0.672413
 H         2.880108         1.950797        -0.465940
 H         3.519369        -0.005184        -1.953318
 H         5.154183        -2.516994         0.064234
 H         4.256612        -1.742040         1.426224
 H         2.831768        -3.263070        -0.866691
 H         2.478502        -2.683331         0.945165
 H         1.638216        -1.598116        -1.591851
