19
Iteration:  2323
 C        -0.059277         0.237174        -0.263192
 C         1.444390         0.015760        -0.211743
 O         2.149743         0.385927         1.008380
 C         2.591787         0.969924        -0.228155
 C         3.530861        -0.076601        -0.846299
 O         4.413420        -0.611221         0.045078
 C         4.278713        -2.042917        -0.045812
 C         2.782027        -2.318204         0.011169
 C         2.282579        -1.126957        -0.838390
 H        -0.593153        -0.554595        -0.822472
 H        -0.441146         0.172046         0.726688
 H        -0.321782         1.146816        -0.790979
 H         2.665048         2.038433        -0.379133
 H         3.998378         0.186984        -1.804209
 H         4.682419        -2.387580        -1.007425
 H         4.826625        -2.280624         0.828855
 H         2.384793        -3.251922        -0.413037
 H         2.494165        -2.274958         1.022685
 H         1.941444        -1.415020        -1.855977
