19
Iteration:   583charge 0 multiplicity 1
 C        -0.077325         0.113241        -0.280332
 C         1.402360         0.091192        -0.246840
 O         1.944896         0.238964         1.067659
 C         2.750337         0.925831         0.015149
 C         3.544531        -0.061517        -0.833862
 O         4.688296        -0.792200        -0.530591
 C         4.114369        -1.875963         0.362841
 C         2.736196        -2.177469        -0.001366
 C         2.321524        -0.984398        -0.955506
 H        -0.416734        -0.468644         0.601751
 H        -0.446035         1.126678        -0.143107
 H        -0.425706        -0.278311        -1.224765
 H         3.075582         1.989020         0.130678
 H         3.776692         0.421293        -1.805371
 H         4.737606        -2.692685         0.338308
 H         4.182286        -1.437595         1.437116
 H         2.553108        -3.173980        -0.346653
 H         2.161087        -2.113926         0.985007
 H         2.031394        -1.228296        -2.020700
