19
Iteration:  1059
 C        -0.032471        -0.025462        -0.069683
 C         1.478264         0.049394        -0.113148
 O         2.236815         0.441599         0.955828
 C         2.626452         1.037117        -0.302130
 C         3.546738        -0.047627        -0.979433
 O         4.468773        -0.666498        -0.122449
 C         4.052145        -2.046536         0.378063
 C         2.714961        -2.254693        -0.211806
 C         2.332893        -1.011866        -0.959650
 H        -0.446469        -0.686214         0.728907
 H        -0.466419         0.967884         0.175535
 H        -0.478947        -0.277215        -1.042413
 H         2.780463         2.120379        -0.224908
 H         4.046033         0.213781        -1.923883
 H         4.763085        -2.773523         0.038206
 H         4.179675        -2.076963         1.454563
 H         2.736666        -3.122621        -0.835125
 H         1.960470        -2.327611         0.606052
 H         1.875550        -1.166817        -1.940367
