19
Iteration:  4288charge 0 multiplicity 1
 C        -0.039761         0.312359        -0.263691
 C         1.420116        -0.054340        -0.177935
 O         2.290715         0.257774         0.930422
 C         2.528760         0.888340        -0.358163
 C         3.440033        -0.222441        -1.084185
 O         4.583603        -0.574719        -0.265342
 C         4.138019        -1.699800         0.583797
 C         2.818713        -2.269121         0.079921
 C         2.209862        -1.229868        -0.882310
 H        -0.534910         0.167076        -1.214922
 H        -0.565896        -0.143359         0.649784
 H        -0.091002         1.324443         0.144970
 H         2.624681         1.971913        -0.458018
 H         3.677590        -0.093575        -2.143231
 H         4.977948        -2.406911         0.559001
 H         3.906692        -1.327034         1.605834
 H         2.822978        -3.124222        -0.522545
 H         2.118511        -2.513293         0.912440
 H         1.757032        -1.818420        -1.674888
