19
Iteration:  4991
 C         0.099985         0.195920        -0.236792
 C         1.447862         0.025536        -0.226121
 O         2.177258         0.458014         0.942114
 C         2.552123         0.907783        -0.452033
 C         3.412980        -0.191941        -1.022863
 O         4.453584        -0.596067        -0.145874
 C         4.241684        -1.863190         0.370707
 C         2.760230        -2.249579         0.223111
 C         2.256526        -1.225881        -0.895371
 H        -0.082965        -0.114838        -1.265586
 H        -0.369276        -0.679097         0.416947
 H        -0.410601         1.136916         0.112653
 H         2.703315         2.017784        -0.440260
 H         3.785153        -0.148455        -2.023884
 H         4.863260        -2.630068        -0.088957
 H         4.543766        -1.878378         1.376402
 H         2.658306        -3.213301        -0.206792
 H         2.176025        -2.154275         1.191936
 H         1.645094        -1.632147        -1.665908
