19
Iteration:  4571
 C        -0.030851         0.310678        -0.408453
 C         1.377447        -0.021825        -0.196613
 O         2.092590         0.399594         0.930242
 C         2.581682         0.876386        -0.342354
 C         3.390225        -0.208648        -1.048673
 O         4.534685        -0.582270        -0.160943
 C         4.390840        -1.966967         0.169770
 C         2.816655        -2.198873         0.441525
 C         2.237904        -1.203028        -0.766388
 H        -0.188416         0.507287        -1.465066
 H        -0.661964        -0.504923        -0.074559
 H        -0.297724         1.087632         0.311841
 H         2.570073         1.949703        -0.436374
 H         3.680260        -0.075950        -2.129069
 H         4.745241        -2.518052        -0.756222
 H         4.996383        -2.314372         1.062075
 H         2.349353        -3.211762         0.402750
 H         2.681556        -1.626196         1.451986
 H         1.783158        -1.750708        -1.583901
