19
Iteration:   733charge 0 multiplicity 1
 C         0.039499        -0.062885        -0.183230
 C         1.515222         0.070806        -0.171425
 O         2.477779         0.390427         1.035904
 C         2.635767         1.016260        -0.216732
 C         3.437710        -0.061906        -1.000383
 O         4.508152        -0.662044        -0.205703
 C         3.926727        -1.802927         0.512176
 C         2.620885        -2.287793        -0.192358
 C         2.239208        -1.109600        -0.991580
 H        -0.115118        -1.194713        -0.054524
 H        -0.669259         0.520249         0.459308
 H        -0.232990         0.082777        -1.250575
 H         2.677844         2.114758        -0.243417
 H         3.740016         0.312566        -1.988565
 H         4.764802        -2.588349         0.533497
 H         3.707512        -1.521718         1.529668
 H         2.720089        -3.170537        -0.823890
 H         1.803312        -2.351956         0.634153
 H         1.725980        -1.324784        -1.878492
