19
Iteration:  4516
 C        -0.148606         0.060174        -0.425783
 C         1.396947         0.052146        -0.103120
 O         1.978173         0.778631         0.980135
 C         2.580056         0.984671        -0.420502
 C         3.529481        -0.179109        -0.877699
 O         4.558148        -0.757408        -0.187171
 C         4.338630        -2.131157         0.036369
 C         2.860932        -2.170733         0.312797
 C         2.347850        -1.157983        -0.613310
 H        -0.367781         0.148286        -1.476955
 H        -0.516431        -0.902186        -0.202834
 H        -0.739005         0.822778         0.104760
 H         2.594215         2.071754        -0.628601
 H         3.780218        -0.198872        -2.011730
 H         4.569905        -2.643612        -0.912324
 H         4.784117        -2.743408         0.867789
 H         2.478807        -3.147704        -0.027976
 H         2.888673        -1.934030         1.482017
 H         1.944189        -1.621228        -1.500523
