19
Iteration:  4760
 C        -0.096753         0.082592        -0.298322
 C         1.437464         0.016638        -0.118566
 O         2.166072         0.668964         0.890740
 C         2.634022         1.008915        -0.415241
 C         3.391844        -0.204882        -0.942054
 O         4.526807        -0.703764        -0.218461
 C         4.280659        -1.951055         0.394274
 C         2.838041        -2.310358         0.143486
 C         2.247299        -1.155305        -0.767934
 H        -0.228233         0.505856        -1.260239
 H        -0.761628        -0.784397        -0.140556
 H        -0.482986         0.773157         0.404049
 H         2.504687         1.959016        -0.934536
 H         3.632730        -0.168023        -2.048218
 H         4.917775        -2.888286         0.117400
 H         4.579503        -1.719879         1.408939
 H         2.765962        -3.345174        -0.344311
 H         2.283684        -2.394498         1.088204
 H         1.778357        -1.536768        -1.716859
