19
Iteration:  4558charge 0 multiplicity 1
 C        -0.075818         0.233049        -0.364471
 C         1.440234        -0.009957        -0.306534
 O         2.009304         0.493447         0.941443
 C         2.589733         0.907387        -0.360798
 C         3.482596        -0.203535        -0.924742
 O         4.477395        -0.612496        -0.177423
 C         4.310646        -2.041419         0.055943
 C         2.875570        -2.133011         0.427639
 C         2.296824        -1.266388        -0.665862
 H        -0.396566         0.783523        -1.302323
 H        -0.736484        -0.636540        -0.212010
 H        -0.222699         1.139432         0.344049
 H         2.823132         1.984134        -0.519699
 H         3.778752         0.056208        -1.945942
 H         4.515536        -2.769754        -0.785812
 H         5.185974        -2.098915         0.798348
 H         2.552235        -3.172788         0.413720
 H         2.564963        -1.767528         1.487133
 H         1.966995        -1.774442        -1.557472
