19
Iteration:  1755
 C        -0.157230         0.197262        -0.418079
 C         1.385465         0.044336        -0.240011
 O         1.971562         0.384117         1.004376
 C         2.611667         0.992379        -0.059496
 C         3.534711        -0.017812        -0.707772
 O         4.645239        -0.689967        -0.174453
 C         4.269613        -2.172041        -0.124413
 C         2.819293        -2.230662         0.153875
 C         2.347603        -1.038076        -0.768159
 H        -0.595893        -0.609869         0.229210
 H        -0.546804         1.200499        -0.025034
 H        -0.517592         0.026169        -1.497353
 H         2.650385         2.106125         0.005020
 H         3.809930         0.477370        -1.670429
 H         4.473187        -2.625706        -1.118221
 H         4.905374        -2.643242         0.542066
 H         2.471098        -3.263203         0.122295
 H         2.608586        -1.980672         1.186871
 H         2.003234        -1.425847        -1.799892
