19
Iteration:   843charge 0 multiplicity 1
 C         0.117581         0.487318        -0.431519
 C         1.402764        -0.040296        -0.056433
 O         2.175076         0.295765         1.142798
 C         2.600697         0.802883        -0.062500
 C         3.262834        -0.124718        -0.934876
 O         4.485728        -0.556205        -0.423266
 C         4.187605        -1.777234         0.414545
 C         2.960100        -2.477218        -0.093250
 C         2.182087        -1.269462        -0.824338
 H        -0.730234        -0.210461        -0.454907
 H         0.047960         1.467433        -0.019459
 H         0.116324         0.774685        -1.499802
 H         2.650990         1.854157        -0.074507
 H         3.257412         0.280764        -1.958353
 H         5.115357        -2.409890         0.251756
 H         4.011883        -1.530702         1.441040
 H         3.154250        -2.932934        -1.031169
 H         2.432604        -3.207644         0.691025
 H         1.667760        -1.469840        -1.712271
