19
Iteration:   601charge 0 multiplicity 1
 C        -0.022373         0.067155        -0.446439
 C         1.489983         0.084829        -0.199169
 O         2.171035         0.134323         1.138218
 C         2.705620         0.917065         0.078271
 C         3.499974        -0.042107        -0.961428
 O         4.594403        -0.795828        -0.509354
 C         4.164802        -1.787478         0.386217
 C         2.584676        -2.062662         0.045727
 C         2.233418        -0.985573        -0.897264
 H        -0.463560        -0.347088         0.530056
 H        -0.557165         1.064418        -0.670549
 H        -0.074579        -0.582549        -1.352089
 H         2.796077         1.998887         0.306887
 H         3.692402         0.530773        -1.873648
 H         4.893194        -2.692266         0.171251
 H         4.330235        -1.506411         1.439738
 H         2.396327        -3.036969        -0.439038
 H         1.845471        -2.177319         0.863823
 H         1.890972        -1.299605        -1.835804
