19
Iteration:  4834
 C        -0.126136         0.402046        -0.428892
 C         1.333609        -0.046928        -0.232150
 O         1.960504         0.343969         0.925757
 C         2.533756         0.873861        -0.282181
 C         3.455012        -0.211418        -0.954927
 O         4.725115        -0.653508        -0.400705
 C         4.339103        -1.981960         0.291512
 C         2.876148        -2.064426         0.431674
 C         2.313729        -1.246526        -0.722248
 H        -0.724904        -0.122568        -1.284743
 H        -0.751634         0.073698         0.603774
 H        -0.408600         1.459587        -0.534748
 H         2.568739         1.983817        -0.287168
 H         3.782113        -0.033911        -1.970899
 H         4.581173        -2.773968        -0.452225
 H         4.820062        -2.355528         1.230905
 H         2.603257        -3.172516         0.700346
 H         2.677881        -1.615249         1.395877
 H         2.044660        -1.518582        -1.767007
