19
Iteration:   213charge 0 multiplicity 1
 C        -0.052019         0.210442        -0.168499
 C         1.430451         0.001969        -0.038378
 O         2.201983         0.451235         1.082277
 C         2.487586         1.112357        -0.235989
 C         3.506165        -0.094393        -0.974978
 O         4.515682        -0.713594        -0.113783
 C         4.083709        -1.998845         0.447598
 C         2.947464        -2.429383        -0.431013
 C         2.295637        -1.100214        -0.914143
 H        -0.310771         1.167498         0.343343
 H        -0.210713         0.424068        -1.306120
 H        -0.797720        -0.598126         0.201772
 H         2.247610         2.150187        -0.391030
 H         3.975967         0.150626        -1.927935
 H         4.983091        -2.616784         0.434017
 H         3.764986        -1.944672         1.538450
 H         3.355140        -2.812166        -1.393402
 H         2.246631        -3.280144        -0.009837
 H         1.742393        -1.193928        -1.910854
