19
Iteration:  3935charge 0 multiplicity 1
 C        -0.068018         0.076389        -0.369002
 C         1.410463         0.076694        -0.273906
 O         1.912682         0.681351         0.973862
 C         2.564014         0.965063        -0.205725
 C         3.479486        -0.251933        -0.867226
 O         4.650004        -0.675733        -0.198919
 C         4.356005        -2.090335         0.039122
 C         2.777000        -2.198516         0.232708
 C         2.325444        -1.179342        -0.674294
 H        -0.446654        -0.001858        -1.441376
 H        -0.595834        -0.656109         0.223395
 H        -0.323845         1.047413         0.152285
 H         2.642256         2.054916        -0.615968
 H         3.732741         0.138734        -1.859428
 H         4.601543        -2.929861        -0.658299
 H         4.990319        -2.360278         0.900144
 H         2.721578        -3.277124         0.113934
 H         2.414947        -1.801649         1.196535
 H         1.986971        -1.399869        -1.708924
