19
Iteration:  1373
 C        -0.075228         0.230474        -0.382711
 C         1.468830         0.007456        -0.153618
 O         2.069863         0.252951         1.125117
 C         2.551768         1.080479        -0.136591
 C         3.536717        -0.012794        -0.842687
 O         4.542282        -0.656323        -0.074562
 C         4.345991        -2.111675        -0.021690
 C         2.750337        -2.202513        -0.034316
 C         2.231254        -1.108796        -0.884701
 H        -0.590333        -0.205049         0.458670
 H        -0.313139         1.255512        -0.399153
 H        -0.289080        -0.273176        -1.347588
 H         2.512496         2.168365        -0.011743
 H         3.859342         0.294034        -1.859327
 H         4.807259        -2.688968        -0.849757
 H         4.714017        -2.326212         1.000672
 H         2.334035        -3.294450        -0.213039
 H         2.520528        -1.968983         1.010376
 H         1.797615        -1.429359        -1.834183
