19
Iteration:  2541
 C         0.017706        -0.054977        -0.040492
 C         1.539069         0.060876        -0.186121
 O         2.309057         0.469899         0.936972
 C         2.691669         1.008655        -0.297343
 C         3.562318        -0.122395        -0.970232
 O         4.544725        -0.784478        -0.288177
 C         3.859146        -1.784969         0.612286
 C         2.666658        -2.293132        -0.216482
 C         2.204499        -1.024304        -0.950949
 H        -0.502477        -0.503693        -0.909494
 H        -0.274460        -0.712080         0.760345
 H        -0.504540         0.910542         0.192806
 H         2.802179         2.113667        -0.346309
 H         3.920651         0.196064        -1.972463
 H         4.586182        -2.556342         0.579078
 H         3.818249        -1.475386         1.652229
 H         3.219779        -3.008530        -0.910427
 H         1.927093        -2.796784         0.391057
 H         1.725199        -0.938483        -1.954217
