19
Iteration:  4048charge 0 multiplicity 1
 C        -0.133496         0.120588        -0.203077
 C         1.436064         0.047828        -0.238512
 O         2.077823         0.437517         0.919349
 C         2.601632         0.975112        -0.329873
 C         3.474966        -0.225465        -1.005943
 O         4.627986        -0.643344        -0.270057
 C         4.241565        -1.893942         0.420853
 C         2.757219        -2.241423         0.114938
 C         2.344363        -1.162023        -0.828966
 H        -0.573862        -0.271471        -1.097047
 H        -0.575121        -0.394281         0.708393
 H        -0.363104         1.191179        -0.150653
 H         2.800662         2.038596        -0.422128
 H         3.839446        -0.041764        -2.022584
 H         4.977518        -2.731829         0.238905
 H         4.303124        -1.657373         1.549909
 H         2.557648        -3.261030        -0.254768
 H         2.098969        -1.945644         0.990040
 H         1.841641        -1.408886        -1.812184
