19
Iteration:  1898charge 0 multiplicity 1
 C         0.048300        -0.055856        -0.179397
 C         1.539983         0.084137        -0.273411
 O         2.220372         0.237829         1.100123
 C         2.736372         0.952788        -0.069179
 C         3.438138        -0.027326        -1.062025
 O         4.570099        -0.728267        -0.290148
 C         3.975369        -1.760087         0.487818
 C         2.677734        -2.184989        -0.094128
 C         2.235678        -0.976119        -1.057383
 H        -0.368846        -1.016226         0.072771
 H        -0.506932         0.621562         0.527888
 H        -0.389568         0.014792        -1.159385
 H         2.980910         1.991954         0.001181
 H         3.855357         0.441506        -1.959840
 H         4.748319        -2.603476         0.650031
 H         3.723632        -1.475338         1.471434
 H         2.782955        -2.993215        -0.798646
 H         1.870409        -2.573346         0.491753
 H         1.709754        -1.280918        -2.009236
