19
Iteration:  3191
 C        -0.032283         0.320336        -0.168700
 C         1.413620         0.030737        -0.254333
 O         2.173685         0.470517         0.977592
 C         2.655046         0.872336        -0.343267
 C         3.412418        -0.240910        -1.080688
 O         4.573462        -0.839105        -0.394055
 C         4.157859        -1.666692         0.608326
 C         2.886564        -2.319216         0.087338
 C         2.215153        -1.185248        -0.799504
 H        -0.602773         0.553475        -1.130552
 H        -0.585094        -0.638837         0.133277
 H        -0.246581         1.151677         0.558080
 H         2.642227         1.902516        -0.720838
 H         3.605562        -0.030035        -2.171612
 H         4.837011        -2.505365         0.859427
 H         3.942421        -0.974404         1.455922
 H         2.953534        -3.119496        -0.678678
 H         2.099475        -2.771882         0.671759
 H         1.771012        -1.738610        -1.632098
