19
Iteration:   452
 C        -0.032562        -0.018568        -0.011453
 C         1.490847         0.079287        -0.335799
 O         2.016792         0.371459         0.916456
 C         2.708257         1.035483        -0.100184
 C         3.567239        -0.001344        -0.875036
 O         4.608662        -0.864837        -0.355915
 C         4.043737        -1.878425         0.568598
 C         2.702054        -2.237949        -0.211973
 C         2.318052        -0.987118        -1.024559
 H        -0.087190        -0.684136         0.785198
 H        -0.199105         0.993511         0.293958
 H        -0.632504        -0.246283        -0.804636
 H         2.742401         2.145702         0.003443
 H         3.928537         0.319284        -1.875183
 H         4.651306        -2.674833         0.489769
 H         3.970856        -1.483470         1.621376
 H         2.924373        -3.067702        -0.803448
 H         1.969369        -2.547518         0.603957
 H         2.016957        -1.089869        -2.133131
