19
Iteration:  4634charge 0 multiplicity 1
 C        -0.045557         0.183771        -0.248450
 C         1.430960         0.004079        -0.213364
 O         2.042020         0.568244         0.983697
 C         2.589163         0.883222        -0.332789
 C         3.446894        -0.198986        -0.927508
 O         4.647010        -0.842500        -0.430409
 C         4.245341        -1.769433         0.513301
 C         2.843629        -2.332037         0.061713
 C         2.204918        -1.106584        -0.773867
 H        -0.662373        -0.267018        -1.100750
 H        -0.518084        -0.249477         0.663421
 H        -0.403364         1.304222        -0.337813
 H         2.772327         1.928026        -0.546793
 H         3.681358         0.238052        -1.875193
 H         5.095505        -2.448302         0.509192
 H         4.094954        -1.291219         1.547702
 H         3.041948        -3.139421        -0.611018
 H         2.296665        -2.619748         0.993339
 H         1.857307        -1.368070        -1.773156
