19
Iteration:  3721charge 0 multiplicity 1
 C        -0.132607         0.242845        -0.086712
 C         1.419820        -0.086521        -0.152366
 O         2.145317         0.520058         0.906180
 C         2.588838         0.924753        -0.347386
 C         3.489042        -0.155137        -0.983151
 O         4.671553        -0.738640        -0.298998
 C         4.099176        -1.813550         0.594560
 C         2.871926        -2.323648        -0.090523
 C         2.288579        -1.153567        -0.918796
 H        -0.708224        -0.075245        -0.959042
 H        -0.647953        -0.450045         0.684966
 H        -0.261245         1.309344         0.178657
 H         2.679631         2.036548        -0.618181
 H         3.769828         0.083719        -2.051648
 H         4.761134        -2.684672         0.586948
 H         3.832887        -1.482924         1.618288
 H         3.004765        -2.916168        -0.983354
 H         2.213020        -2.787764         0.675655
 H         1.662432        -1.485620        -1.763202
