19
Iteration:  2953
 C        -0.003226         0.334202        -0.371746
 C         1.465659        -0.015086        -0.160106
 O         2.159810         0.406499         1.098499
 C         2.546854         0.970817        -0.233761
 C         3.383577        -0.171469        -0.949547
 O         4.576361        -0.844128        -0.589323
 C         4.222652        -1.775428         0.464071
 C         2.777923        -2.289969         0.159419
 C         2.256533        -1.197469        -0.756477
 H        -0.703807        -0.534755        -0.384780
 H        -0.247791         0.960316         0.475348
 H        -0.092157         0.994790        -1.263603
 H         2.635521         2.009100        -0.413682
 H         3.472652         0.113105        -1.995558
 H         5.083676        -2.472468         0.388627
 H         4.321322        -1.291127         1.408511
 H         2.719734        -3.321337        -0.306168
 H         2.299586        -2.544958         1.099511
 H         1.798223        -1.515065        -1.706743
