19
Iteration:   179charge 0 multiplicity 1
 C         0.017857         0.180184        -0.282771
 C         1.511994        -0.071237        -0.051590
 O         2.342525         0.355702         1.098512
 C         2.643500         0.969273        -0.109298
 C         3.368817        -0.111948        -0.904815
 O         4.450966        -0.572447        -0.135117
 C         4.009765        -1.780516         0.404593
 C         2.840439        -2.428759        -0.403591
 C         2.186536        -1.152955        -0.965516
 H        -0.238165         1.072052         0.381053
 H        -0.011484         0.533372        -1.385364
 H        -0.724403        -0.679683        -0.197404
 H         2.754611         2.057162        -0.208993
 H         3.646880         0.204903        -1.903304
 H         4.908449        -2.338390         0.451855
 H         3.575762        -1.566668         1.462114
 H         3.247020        -3.047979        -1.233990
 H         2.238811        -3.124992         0.332785
 H         1.826427        -1.220794        -2.068185
