19
Iteration:  2753charge 0 multiplicity 1
 C        -0.109202         0.513144        -0.347656
 C         1.402317         0.052511        -0.077233
 O         2.108158         0.420367         1.049044
 C         2.619564         0.909377        -0.254676
 C         3.371000        -0.270369        -0.912157
 O         4.564747        -0.616954        -0.309130
 C         4.326416        -1.877939         0.320219
 C         2.880664        -2.504106        -0.058808
 C         2.211671        -1.265164        -0.766311
 H         0.007889         1.433982        -0.907246
 H        -0.842705        -0.330833        -0.753323
 H        -0.335474         0.882881         0.658716
 H         2.903838         1.927834        -0.469128
 H         3.531465         0.012505        -1.960224
 H         5.142327        -2.510844         0.041350
 H         4.324517        -1.720708         1.451146
 H         2.843486        -3.277939        -0.849264
 H         2.456142        -2.696090         0.983354
 H         1.634668        -1.596630        -1.595648
