19
Iteration:  2790charge 0 multiplicity 1
 C        -0.046029         0.168233        -0.137154
 C         1.487526         0.017952        -0.122672
 O         2.206174         0.544881         0.989757
 C         2.611031         0.996758        -0.329382
 C         3.404679        -0.140396        -0.966280
 O         4.580178        -0.847435        -0.356750
 C         4.113384        -1.875477         0.532002
 C         2.766959        -2.305416        -0.137352
 C         2.333202        -1.111158        -0.860725
 H        -0.287755         1.175033        -0.549828
 H        -0.691961        -0.496139        -0.739962
 H        -0.491215         0.163022         0.896013
 H         2.394926         2.089208        -0.391992
 H         3.805584         0.171231        -1.918374
 H         4.981630        -2.586494         0.627093
 H         3.799834        -1.687033         1.540667
 H         2.903996        -3.151963        -0.829117
 H         2.109604        -2.785465         0.517832
 H         1.718172        -1.385505        -1.750022
