19
Iteration:  4255charge 0 multiplicity 1
 C        -0.063355         0.151713        -0.290401
 C         1.418030        -0.029961        -0.161169
 O         2.114696         0.551384         0.937480
 C         2.647990         0.996350        -0.293578
 C         3.433317        -0.152742        -0.946360
 O         4.598498        -0.727034        -0.371862
 C         4.175270        -1.837263         0.446393
 C         2.808733        -2.359395         0.077842
 C         2.270799        -1.153387        -0.784300
 H        -0.620811        -0.313490        -1.077408
 H        -0.504430        -0.393787         0.603239
 H        -0.222284         1.220905        -0.361768
 H         2.677280         2.084383        -0.409392
 H         3.744733         0.035454        -1.981300
 H         4.968147        -2.572215         0.471244
 H         4.177493        -1.470054         1.504992
 H         2.886862        -3.185023        -0.560137
 H         2.194216        -2.524734         0.986015
 H         1.864171        -1.779085        -1.537527
