19
Iteration:  1454charge 0 multiplicity 1
 C        -0.007418         0.365638        -0.517499
 C         1.376459        -0.059929        -0.102685
 O         1.961326         0.417062         1.157082
 C         2.517170         0.901230        -0.004361
 C         3.446394        -0.075648        -0.809010
 O         4.686996        -0.616661        -0.295218
 C         4.300333        -2.048321        -0.016129
 C         2.845843        -2.389145         0.037674
 C         2.273192        -1.099289        -0.743038
 H        -0.775176        -0.427524        -0.551365
 H        -0.531251         1.163373         0.127311
 H         0.027862         0.655168        -1.568602
 H         2.485535         2.000481        -0.180068
 H         3.528819         0.386665        -1.807945
 H         4.851978        -2.688855        -0.753978
 H         4.892942        -2.295966         0.970591
 H         2.582626        -3.400562        -0.312084
 H         2.601786        -2.304867         1.149645
 H         1.800860        -1.357820        -1.713308
