19
Iteration:  1163charge 0 multiplicity 1
 C         0.184957         0.624258        -0.496416
 C         1.410114        -0.060593        -0.101608
 O         1.907572         0.186561         1.188947
 C         2.525329         0.881413         0.026210
 C         3.205938        -0.117666        -0.889362
 O         4.600316        -0.686930        -0.555996
 C         4.365941        -1.753179         0.406093
 C         3.034654        -2.367116        -0.075748
 C         2.158526        -1.305101        -0.754798
 H        -0.603239        -0.057412        -0.505387
 H        -0.095588         1.611044        -0.013211
 H         0.295497         0.811836        -1.552730
 H         2.629557         1.934056        -0.037178
 H         3.226867         0.222837        -1.943702
 H         5.186507        -2.435152         0.110543
 H         4.124378        -1.404919         1.392248
 H         3.095471        -3.361657        -0.754443
 H         2.554321        -2.843360         0.839458
 H         1.690757        -1.636911        -1.752226
