19
Iteration:  1561charge 0 multiplicity 1
 C        -0.064064        -0.084673        -0.294607
 C         1.432557         0.118049        -0.154724
 O         2.173764         0.532129         1.018892
 C         2.655567         0.998526        -0.171681
 C         3.549469        -0.080199        -0.873903
 O         4.543579        -0.718021        -0.073248
 C         4.186078        -2.129446         0.109345
 C         2.662213        -2.142481        -0.042552
 C         2.251459        -0.977982        -0.908130
 H        -0.226734        -0.689346         0.608815
 H        -0.744461         0.773519        -0.444196
 H        -0.220640        -0.721807        -1.133940
 H         2.729112         2.115046        -0.082415
 H         3.922018         0.326225        -1.837000
 H         4.713296        -2.693982        -0.694184
 H         4.530424        -2.374214         1.143082
 H         2.458416        -3.171453        -0.460423
 H         2.227402        -2.187300         0.988735
 H         1.919287        -1.142263        -1.898916
