19
Iteration:   238charge 0 multiplicity 1
 C        -0.052340         0.177269        -0.043245
 C         1.379346         0.028187        -0.318782
 O         1.953180         0.470260         1.035230
 C         2.656898         0.887396        -0.154283
 C         3.570037        -0.067145        -0.811715
 O         4.663603        -0.726495        -0.190797
 C         4.106962        -1.940050         0.383074
 C         2.799540        -2.335313        -0.346961
 C         2.354873        -1.067820        -0.982820
 H        -0.159396         1.160237         0.453276
 H        -0.792477         0.095361        -0.909571
 H        -0.288196        -0.630619         0.786150
 H         2.746813         1.958408        -0.412272
 H         3.901970         0.395410        -1.762446
 H         5.008067        -2.625216         0.481818
 H         3.759404        -1.773352         1.380151
 H         2.941274        -3.107001        -1.282222
 H         2.007515        -2.799863         0.333894
 H         2.086833        -1.092733        -2.005757
