19
Iteration:  1527charge 0 multiplicity 1
 C        -0.002122         0.231358        -0.184726
 C         1.412512        -0.007889        -0.280640
 O         2.013174         0.386076         0.909593
 C         2.565478         0.948102        -0.207187
 C         3.576708        -0.054411        -0.854735
 O         4.527676        -0.638234        -0.002147
 C         4.273582        -2.078188         0.044835
 C         2.738059        -2.222723         0.045323
 C         2.321141        -1.093469        -0.882937
 H        -0.462409        -0.569093         0.447998
 H        -0.192269         1.056021         0.472180
 H        -0.665572         0.167029        -1.065231
 H         2.583261         2.049110        -0.199210
 H         3.957382         0.220749        -1.862113
 H         4.807816        -2.640527        -0.786078
 H         4.639158        -2.557836         0.933375
 H         2.622715        -3.194683        -0.513604
 H         2.292064        -2.216365         1.043647
 H         2.000355        -1.278198        -1.867942
