19
Iteration:  3446charge 0 multiplicity 1
 C         0.054512        -0.022663        -0.159854
 C         1.494791         0.073739        -0.093144
 O         2.313243         0.520339         0.976299
 C         2.620336         1.049066        -0.347666
 C         3.479222        -0.182903        -1.147692
 O         4.507836        -0.850955        -0.430452
 C         4.026283        -1.673823         0.717100
 C         2.698214        -2.337291         0.022870
 C         2.212261        -1.084377        -0.895532
 H        -0.340467        -0.026707        -1.224353
 H        -0.279401        -1.011020         0.142564
 H        -0.288909         0.830341         0.458419
 H         2.655654         2.134324        -0.613293
 H         3.847499         0.051909        -2.162913
 H         4.822101        -2.384250         0.930050
 H         3.762956        -1.012785         1.509843
 H         3.077083        -3.233649        -0.476817
 H         1.884682        -2.847532         0.615610
 H         1.564851        -1.398333        -1.795167
