19
Iteration:  3406charge 0 multiplicity 1
 C        -0.061296         0.165997         0.057160
 C         1.423913         0.021437        -0.209897
 O         2.267654         0.656117         0.839964
 C         2.578199         1.008176        -0.571105
 C         3.478825        -0.210479        -1.058554
 O         4.545002        -0.720679        -0.140938
 C         4.080457        -1.906165         0.638606
 C         2.843748        -2.472506        -0.122526
 C         2.256271        -1.148605        -0.858868
 H        -0.612525         0.494690        -0.803852
 H        -0.543036        -0.750363         0.505847
 H        -0.327211         1.005675         0.723159
 H         2.414231         2.071482        -0.684354
 H         3.894592        -0.066722        -2.050213
 H         5.031399        -2.482270         0.585099
 H         3.896088        -1.601094         1.736013
 H         3.023431        -3.063387        -1.056716
 H         2.151267        -3.142785         0.486412
 H         1.738734        -1.249925        -1.852290
