19
Iteration:   220charge 0 multiplicity 1
 C        -0.087749         0.221610        -0.123468
 C         1.444747        -0.019695        -0.128244
 O         2.145586         0.494249         1.037888
 C         2.481416         1.062475        -0.212328
 C         3.502893        -0.093747        -0.858472
 O         4.550775        -0.741689        -0.155696
 C         4.103854        -1.984489         0.450547
 C         2.936601        -2.448347        -0.445561
 C         2.322433        -1.063724        -0.933012
 H        -0.319879         1.147055         0.409750
 H        -0.448711         0.350080        -1.093000
 H        -0.646813        -0.517533         0.329203
 H         2.434858         2.168831        -0.356768
 H         4.008953         0.223548        -1.788468
 H         4.880671        -2.739811         0.340834
 H         3.826343        -1.829470         1.513576
 H         3.300525        -3.005660        -1.280805
 H         2.296430        -3.071384         0.063090
 H         1.940392        -1.184044        -1.962033
