19
Iteration:  1374
 C        -0.072170         0.222819        -0.384558
 C         1.467630         0.017288        -0.164050
 O         2.070496         0.242624         1.130432
 C         2.556061         1.074093        -0.129995
 C         3.540623        -0.010214        -0.847632
 O         4.545912        -0.655846        -0.079962
 C         4.333781        -2.113133        -0.026740
 C         2.748479        -2.185517        -0.026220
 C         2.230467        -1.106550        -0.885231
 H        -0.600166        -0.227306         0.453661
 H        -0.323551         1.237849        -0.431367
 H        -0.315848        -0.266473        -1.330489
 H         2.501412         2.150294        -0.003684
 H         3.865834         0.302802        -1.852130
 H         4.807386        -2.713071        -0.845774
 H         4.740971        -2.334296         1.021889
 H         2.347193        -3.264588        -0.159586
 H         2.495317        -1.958057         1.018696
 H         1.823688        -1.431613        -1.818249
