19
Iteration:  2720
 C         0.031369         0.446490        -0.396344
 C         1.392406        -0.040814        -0.121915
 O         2.088785         0.230654         1.082196
 C         2.545505         0.942343        -0.159971
 C         3.408576        -0.186469        -0.917302
 O         4.624259        -0.665071        -0.413564
 C         4.304320        -1.944835         0.267757
 C         2.778480        -2.234581         0.096375
 C         2.243153        -1.158670        -0.806314
 H        -0.054834         1.003556        -1.343107
 H        -0.891348        -0.262234        -0.406824
 H        -0.161408         1.091674         0.474363
 H         2.505217         1.988460        -0.399933
 H         3.557383         0.185748        -1.933135
 H         5.031967        -2.663367        -0.039169
 H         4.518511        -1.693462         1.320858
 H         2.392233        -3.238566        -0.134767
 H         2.361253        -2.100712         1.152362
 H         1.753583        -1.581550        -1.661376
