19
Iteration:  1772
 C         0.000017         0.286613        -0.401063
 C         1.415030         0.093093        -0.238291
 O         1.964589         0.302208         1.103325
 C         2.613313         0.928578        -0.092117
 C         3.460205        -0.131312        -0.848305
 O         4.537962        -0.629126        -0.062797
 C         4.378509        -2.013143        -0.132447
 C         2.789916        -2.225725         0.132018
 C         2.253224        -1.134139        -0.815771
 H        -0.521948        -0.305329         0.338268
 H        -0.380637         1.275898        -0.347748
 H        -0.369961         0.014388        -1.375809
 H         2.775891         2.006224        -0.083289
 H         3.685807         0.037214        -1.923866
 H         4.606999        -2.461702        -1.120085
 H         5.070921        -2.425107         0.716930
 H         2.448038        -3.192129        -0.303190
 H         2.676548        -2.161414         1.255712
 H         1.902575        -1.532558        -1.761821
