19
Iteration:  4741charge 0 multiplicity 1
 C        -0.006468         0.185761        -0.168484
 C         1.415183         0.041512        -0.275540
 O         2.121544         0.634260         0.893665
 C         2.553805         0.915996        -0.488933
 C         3.519865        -0.226571        -1.029775
 O         4.554204        -0.621590        -0.171557
 C         4.229665        -1.902613         0.459834
 C         2.767092        -2.394657         0.105896
 C         2.253610        -1.200715        -0.769544
 H        -0.617872         0.499263        -0.984435
 H        -0.308385        -0.790327         0.054625
 H        -0.306964         0.687750         0.762355
 H         2.667252         1.972822        -0.560987
 H         3.739357        -0.081489        -2.128557
 H         5.097847        -2.442714         0.153859
 H         4.353510        -1.837022         1.562864
 H         2.722279        -3.299199        -0.451263
 H         2.106863        -2.569906         0.954325
 H         1.805787        -1.683377        -1.647192
