19
Iteration:  4780
 C        -0.074906         0.147637        -0.431879
 C         1.450686         0.031926        -0.145574
 O         2.187653         0.618132         0.998439
 C         2.480603         0.923675        -0.386919
 C         3.440936        -0.206792        -0.997095
 O         4.608805        -0.646323        -0.322943
 C         4.317730        -1.956446         0.349234
 C         2.721463        -2.262770         0.228351
 C         2.247492        -1.195511        -0.620430
 H        -0.143529         0.165666        -1.565176
 H        -0.573536        -0.869942        -0.009314
 H        -0.622235         0.947003         0.065337
 H         2.542566         2.008119        -0.654755
 H         3.886521         0.000211        -1.966189
 H         4.787297        -2.900204        -0.130926
 H         4.632560        -1.930840         1.395257
 H         2.524948        -3.276596        -0.313225
 H         2.360940        -2.285777         1.260306
 H         1.720578        -1.504044        -1.559024
