19
Iteration:  2469
 C        -0.070485         0.493521        -0.286705
 C         1.355915         0.036590        -0.194783
 O         2.085392         0.308828         0.937272
 C         2.576343         0.901408        -0.263764
 C         3.425134        -0.174308        -0.906926
 O         4.614547        -0.703770        -0.250059
 C         4.382676        -1.938476         0.308397
 C         2.825176        -2.310487         0.162976
 C         2.190518        -1.197211        -0.907561
 H        -0.484942         1.250949        -0.984868
 H        -0.694347        -0.376424        -0.510153
 H        -0.412715         0.762941         0.744059
 H         2.667168         2.027361        -0.322732
 H         3.801368         0.160174        -1.870613
 H         5.133857        -2.716875        -0.085761
 H         4.756324        -1.864218         1.374233
 H         2.693521        -3.291328        -0.181240
 H         2.152333        -2.112523         1.046922
 H         1.828851        -1.589065        -1.871958
