19
Iteration:  3027
 C        -0.065962         0.369030        -0.274260
 C         1.399913         0.035119        -0.184537
 O         2.219954         0.408542         1.058251
 C         2.574078         0.913545        -0.243170
 C         3.401716        -0.173906        -1.026712
 O         4.582236        -0.851467        -0.531810
 C         4.200843        -1.728759         0.536728
 C         2.823466        -2.356873         0.066337
 C         2.238923        -1.192297        -0.752980
 H        -0.622316        -0.427849        -0.691026
 H        -0.474432         0.606288         0.723984
 H        -0.163089         1.143959        -1.039876
 H         2.679999         1.981224        -0.291596
 H         3.749915        -0.019326        -2.053435
 H         4.974768        -2.507993         0.710402
 H         4.123064        -0.961430         1.336519
 H         2.895558        -3.343252        -0.449944
 H         2.108357        -2.568962         0.858210
 H         1.884714        -1.543267        -1.712985
