19
Iteration:    18charge 0 multiplicity 1
 C        -0.222830         0.442643        -0.234239
 C         1.306120        -0.005247        -0.146688
 O         2.075955         0.344093         1.075798
 C         2.591836         0.969396        -0.079222
 C         3.467102        -0.045910        -0.894005
 O         4.654119        -0.763162        -0.368935
 C         4.226655        -1.907193         0.456661
 C         2.946575        -2.502252        -0.205713
 C         2.360034        -1.145890        -0.977594
 H        -0.457359         1.287669         0.424414
 H        -0.393791         0.709285        -1.290797
 H        -0.933853        -0.364950         0.025251
 H         2.634608         2.063172        -0.208925
 H         3.782489         0.530839        -1.800026
 H         5.155082        -2.542742         0.563091
 H         3.841951        -1.544287         1.420138
 H         3.152564        -3.398814        -0.866422
 H         2.269937        -2.688361         0.680087
 H         2.028034        -1.352415        -2.010991
