19
Iteration:  4283charge 0 multiplicity 1
 C        -0.037217         0.313944        -0.260572
 C         1.405882        -0.051480        -0.187779
 O         2.284415         0.286723         0.994343
 C         2.535775         0.876538        -0.396278
 C         3.396184        -0.221368        -1.086512
 O         4.598751        -0.587526        -0.257897
 C         4.181890        -1.726540         0.587435
 C         2.806312        -2.266565         0.052122
 C         2.204379        -1.184359        -0.886392
 H        -0.605931         0.051396        -1.195795
 H        -0.474222        -0.297686         0.538335
 H        -0.176421         1.419859        -0.046878
 H         2.541003         1.970933        -0.457243
 H         3.713185        -0.176310        -2.159979
 H         4.975671        -2.519919         0.675177
 H         4.096463        -1.375191         1.628038
 H         2.924386        -3.225031        -0.608012
 H         2.065716        -2.349837         0.872846
 H         1.761871        -1.897049        -1.622303
