19
Iteration:  3817charge 0 multiplicity 1
 C        -0.038859         0.286900        -0.269699
 C         1.417963        -0.000514        -0.171126
 O         1.965541         0.538454         1.036492
 C         2.557360         0.931598        -0.302387
 C         3.503459        -0.228755        -1.016701
 O         4.572727        -0.656866        -0.314262
 C         4.315757        -1.945542         0.360412
 C         2.801259        -2.321391         0.087405
 C         2.321581        -1.210695        -0.798868
 H        -0.447711         0.330387        -1.286715
 H        -0.544873        -0.575206         0.137313
 H        -0.299318         1.102461         0.408112
 H         2.620312         2.043070        -0.624907
 H         3.669917         0.134018        -2.070425
 H         5.177002        -2.659804         0.098683
 H         4.502375        -1.693433         1.446070
 H         2.859763        -3.342923        -0.299683
 H         2.183676        -2.287862         1.039069
 H         1.983809        -1.621048        -1.796170
