19
Iteration:  1946charge 0 multiplicity 1
 C        -0.065736         0.401541        -0.122998
 C         1.360497        -0.133497        -0.182633
 O         2.099524         0.331422         1.062419
 C         2.489958         0.868970        -0.157660
 C         3.557741        -0.087996        -0.909566
 O         4.611823        -0.701321        -0.290558
 C         4.154249        -1.819059         0.473468
 C         2.932262        -2.326276        -0.301823
 C         2.287323        -1.115720        -0.991911
 H        -0.867484        -0.162868         0.445929
 H        -0.051397         1.337652         0.394761
 H        -0.578233         0.388664        -1.110137
 H         2.352224         1.980249        -0.047671
 H         3.982234         0.306910        -1.836807
 H         4.856198        -2.582970         0.386494
 H         3.965485        -1.683144         1.560868
 H         3.187198        -3.122763        -0.974612
 H         2.169064        -2.850952         0.313059
 H         1.875447        -1.482350        -1.889344
