19
Iteration:  3123
 C         0.058432        -0.012831         0.108721
 C         1.502493         0.097003        -0.286978
 O         2.342958         0.571850         0.795645
 C         2.701101         1.018133        -0.540033
 C         3.467292        -0.129479        -1.096366
 O         4.467745        -0.688478        -0.081663
 C         3.987875        -1.892146         0.616279
 C         2.631764        -2.320782        -0.048382
 C         2.254855        -1.152353        -0.945393
 H        -0.381032        -0.930936        -0.311028
 H         0.067674        -0.135118         1.285131
 H        -0.558469         0.775896        -0.383238
 H         2.643679         2.080407        -0.719236
 H         3.998704         0.144793        -2.065267
 H         4.767277        -2.547780         0.303827
 H         3.761017        -1.793587         1.695360
 H         2.666220        -3.257390        -0.572873
 H         1.946195        -2.634355         0.774279
 H         1.742691        -1.443887        -1.857271
