19
Iteration:  2536
 C        -0.001576        -0.071961        -0.081728
 C         1.543638         0.068575        -0.160344
 O         2.310758         0.482874         0.948776
 C         2.673838         1.036443        -0.290131
 C         3.543608        -0.126111        -1.020405
 O         4.538743        -0.795674        -0.281757
 C         3.907144        -1.806738         0.572542
 C         2.611870        -2.280511        -0.176359
 C         2.281762        -0.993940        -0.924723
 H        -0.444168        -0.456557        -1.002716
 H        -0.184598        -0.879402         0.703338
 H        -0.458290         0.835201         0.257354
 H         2.779340         2.102504        -0.285359
 H         3.915521         0.162599        -2.006563
 H         4.716211        -2.633645         0.674712
 H         3.719845        -1.468539         1.621002
 H         3.016318        -2.954278        -0.898494
 H         1.818240        -2.866152         0.348901
 H         1.678362        -1.069995        -1.839741
