19
Iteration:  3494
 C        -0.079341         0.363966        -0.229160
 C         1.424754        -0.033116        -0.297319
 O         2.015917         0.300199         1.006148
 C         2.638850         0.870553        -0.288576
 C         3.481596        -0.228281        -1.101175
 O         4.622279        -0.693326        -0.443240
 C         4.258091        -1.749382         0.491239
 C         2.816764        -2.177374         0.220643
 C         2.254899        -1.208601        -0.834040
 H        -0.664561         0.088352        -1.050357
 H        -0.482617        -0.288969         0.565874
 H        -0.102606         1.402899         0.032953
 H         2.626641         1.934568        -0.140392
 H         3.689899         0.071791        -2.124418
 H         4.892088        -2.612517         0.245584
 H         4.307422        -1.459653         1.581335
 H         2.594971        -3.239831        -0.029640
 H         2.350446        -2.097488         1.221117
 H         1.895058        -1.895456        -1.586570
