19
Iteration:   118
 C        -0.059226         0.191046        -0.226304
 C         1.496909         0.175105        -0.340916
 O         1.918890         0.081167         1.088130
 C         2.742918         0.848631         0.006786
 C         3.556488        -0.045029        -0.915016
 O         4.609214        -0.708664        -0.456210
 C         4.126215        -1.824842         0.428257
 C         2.736130        -2.207179        -0.040900
 C         2.338524        -0.982885        -0.987259
 H        -0.490935         1.014836         0.243774
 H        -0.606417        -0.082001        -1.134256
 H        -0.221107        -0.664938         0.443925
 H         2.779596         1.882986         0.233056
 H         3.733737         0.509980        -1.875758
 H         4.955773        -2.634121         0.458766
 H         4.060694        -1.422516         1.406792
 H         2.695255        -3.211292        -0.591100
 H         2.095272        -2.183251         0.841269
 H         2.156170        -1.364102        -1.965975
