19
Iteration:  2768charge 0 multiplicity 1
 C        -0.030830         0.449175        -0.218261
 C         1.348511         0.047326        -0.166876
 O         2.136759         0.503198         1.025151
 C         2.621317         0.865273        -0.270450
 C         3.400998        -0.213302        -0.985517
 O         4.605943        -0.676411        -0.292132
 C         4.264589        -1.944033         0.391036
 C         2.887183        -2.418288        -0.107246
 C         2.159519        -1.192159        -0.704839
 H        -0.370594         1.166955        -0.966519
 H        -0.501618        -0.414951        -0.755024
 H        -0.655813         0.502522         0.700096
 H         2.587071         1.992133        -0.425697
 H         3.582513        -0.008611        -2.041844
 H         5.123731        -2.672780         0.358960
 H         4.279257        -1.648847         1.431669
 H         2.988029        -3.244579        -0.822211
 H         2.311491        -2.944102         0.571717
 H         1.823586        -1.410001        -1.752709
