19
Iteration:  4392charge 0 multiplicity 1
 C        -0.039681         0.144968        -0.293397
 C         1.422947         0.000262        -0.089886
 O         2.181797         0.502520         0.987531
 C         2.576037         0.928527        -0.421864
 C         3.443924        -0.190046        -0.937159
 O         4.592283        -0.642881        -0.373767
 C         4.234692        -1.889851         0.473927
 C         2.775649        -2.307011         0.135547
 C         2.217587        -1.115291        -0.793549
 H        -0.232611         0.044634        -1.384794
 H        -0.547224        -0.708096         0.076142
 H        -0.452965         1.137160        -0.141996
 H         2.576451         1.989764        -0.647194
 H         3.551306        -0.066931        -2.042093
 H         4.916764        -2.725302         0.263572
 H         4.511778        -1.506407         1.438460
 H         2.517701        -3.354941        -0.181241
 H         2.113168        -2.247697         0.984915
 H         1.955083        -1.498598        -1.792248
