19
Iteration:  1244
 C        -0.099595        -0.034835        -0.227700
 C         1.432665         0.083005        -0.254988
 O         2.143818         0.289417         1.022812
 C         2.644128         1.019412        -0.092057
 C         3.542211        -0.069208        -0.836399
 O         4.658443        -0.622484        -0.161913
 C         4.142127        -2.090138         0.189116
 C         2.597293        -2.098781        -0.007344
 C         2.328860        -0.979985        -1.064909
 H        -0.315157        -0.942321         0.381272
 H        -0.576051         0.822712         0.167417
 H        -0.475347        -0.271242        -1.243186
 H         2.799480         2.121656        -0.062555
 H         3.896560         0.452975        -1.717252
 H         4.725920        -2.719720        -0.415469
 H         4.433957        -2.347741         1.247261
 H         2.241264        -3.040615        -0.221411
 H         2.249599        -1.751643         0.936965
 H         1.999843        -1.274864        -2.038420
