19
Iteration:  3445
 C         0.056403        -0.022198        -0.151112
 C         1.502612         0.071640        -0.084923
 O         2.306727         0.533408         0.975593
 C         2.621697         1.043925        -0.354803
 C         3.471977        -0.186482        -1.143944
 O         4.513629        -0.848653        -0.425968
 C         4.027346        -1.670734         0.718829
 C         2.694353        -2.353302         0.016467
 C         2.205472        -1.077438        -0.905655
 H        -0.319789        -0.016552        -1.239231
 H        -0.274760        -1.016056         0.139565
 H        -0.301784         0.824620         0.476933
 H         2.662498         2.132735        -0.623067
 H         3.857579         0.053938        -2.168412
 H         4.817745        -2.387247         0.934877
 H         3.755148        -1.039959         1.516433
 H         3.082556        -3.234976        -0.500345
 H         1.904690        -2.841403         0.620291
 H         1.602259        -1.422118        -1.818497
