19
Iteration:   421charge 0 multiplicity 1
 C        -0.061911         0.000825        -0.290593
 C         1.495138         0.032626        -0.154620
 O         2.290006         0.261437         1.083953
 C         2.699416         0.934575        -0.091875
 C         3.554293        -0.034158        -0.971730
 O         4.605640        -0.701148        -0.302509
 C         4.044623        -1.826263         0.431517
 C         2.576237        -2.171323        -0.108604
 C         2.216596        -1.006398        -0.992770
 H        -0.589892        -0.296105         0.598563
 H        -0.436225         0.974375        -0.552341
 H        -0.347854        -0.682809        -1.083851
 H         2.760288         2.054245        -0.083120
 H         3.820555         0.343405        -1.977469
 H         4.655692        -2.722950         0.257385
 H         4.135359        -1.652405         1.519273
 H         2.552781        -3.110025        -0.575757
 H         1.981548        -2.194733         0.831820
 H         1.719749        -1.167541        -2.016243
