19
Iteration:  1475charge 0 multiplicity 1
 C         0.024581         0.424490        -0.494803
 C         1.412104         0.084730        -0.110698
 O         2.023767         0.265506         1.124131
 C         2.597656         0.910442        -0.155116
 C         3.349314        -0.183686        -0.876447
 O         4.458598        -0.581938        -0.148419
 C         4.452439        -1.947127         0.025098
 C         2.881820        -2.322880         0.031389
 C         2.186782        -1.202028        -0.724359
 H        -0.775634        -0.319732        -0.526421
 H        -0.228872         1.159680         0.339448
 H         0.014235         0.934251        -1.420663
 H         2.662480         2.016733        -0.040550
 H         3.521129         0.127197        -1.927224
 H         4.916379        -2.457544        -0.836708
 H         5.101845        -2.426230         0.891247
 H         2.724978        -3.286265        -0.490598
 H         2.481381        -2.676530         1.062756
 H         1.862530        -1.505578        -1.712166
