19
Iteration:  3514charge 0 multiplicity 1
 C        -0.082467         0.507805        -0.318214
 C         1.387794        -0.092640        -0.261609
 O         2.038679         0.335658         0.926001
 C         2.497316         0.863145        -0.292195
 C         3.352073        -0.190502        -0.844249
 O         4.609829        -0.691865        -0.474778
 C         4.472361        -1.850717         0.406198
 C         2.864730        -2.257358         0.288114
 C         2.276009        -1.246613        -0.773667
 H        -0.481721         0.231195        -1.268375
 H        -0.827177         0.096270         0.393316
 H         0.055989         1.583399        -0.235762
 H         2.432204         1.920460        -0.353791
 H         3.518627         0.176661        -1.840517
 H         5.018788        -2.671229        -0.038726
 H         4.719349        -1.657655         1.472773
 H         2.798932        -3.326273        -0.048198
 H         2.217878        -2.166636         1.214221
 H         1.821370        -1.621569        -1.699452
