19
Iteration:  4844charge 0 multiplicity 1
 C        -0.104337         0.394923        -0.402030
 C         1.289847        -0.047435        -0.211730
 O         1.931734         0.359241         0.909533
 C         2.514631         0.891739        -0.343038
 C         3.463236        -0.162182        -0.910152
 O         4.708971        -0.681550        -0.349553
 C         4.375280        -2.053223         0.228538
 C         2.886992        -2.064624         0.439995
 C         2.325375        -1.238093        -0.699345
 H        -0.525590        -0.221337        -1.301333
 H        -0.795342         0.156127         0.520409
 H        -0.033680         1.449972        -0.657346
 H         2.739024         1.978727        -0.214759
 H         3.487652         0.087651        -1.981439
 H         4.614914        -2.854829        -0.466593
 H         5.105970        -1.921456         1.044556
 H         2.466211        -3.131896         0.410497
 H         2.549407        -1.466351         1.266419
 H         1.989633        -1.906896        -1.534164
