19
Iteration:  4669
 C         0.001709         0.124003        -0.168488
 C         1.472068         0.020886        -0.200965
 O         2.228204         0.438463         1.002906
 C         2.604721         0.908558        -0.378480
 C         3.457243        -0.206927        -1.086271
 O         4.554198        -0.810737        -0.377053
 C         4.017550        -1.600372         0.664549
 C         2.835273        -2.310250        -0.013602
 C         2.227871        -1.137487        -0.891146
 H        -0.412315        -0.374930        -1.080483
 H        -0.318239        -0.478719         0.735413
 H        -0.362191         1.154099         0.022280
 H         2.741177         1.970858        -0.455123
 H         3.868606         0.166230        -2.000208
 H         4.712984        -2.312284         1.177119
 H         3.638996        -0.920735         1.444813
 H         3.221945        -3.145165        -0.629888
 H         2.166504        -2.811169         0.753058
 H         1.695302        -1.206540        -1.821471
