19
Iteration:  2212charge 0 multiplicity 1
 C         0.056630        -0.019699        -0.207072
 C         1.506691         0.009589        -0.167226
 O         2.246807         0.239298         1.087848
 C         2.677166         0.936097        -0.046761
 C         3.511165        -0.032253        -1.076613
 O         4.510043        -0.810201        -0.347986
 C         3.959322        -1.695246         0.539865
 C         2.695117        -2.218713        -0.168579
 C         2.236241        -0.900472        -1.035346
 H        -0.252676        -1.034615         0.102209
 H        -0.546876         0.641385         0.485696
 H        -0.151905         0.120119        -1.258929
 H         2.782001         2.060874         0.004101
 H         4.027081         0.356393        -1.943494
 H         4.733012        -2.508501         0.784254
 H         3.653486        -1.121805         1.399073
 H         3.027386        -3.024163        -0.860350
 H         2.057919        -2.406460         0.633893
 H         1.720364        -1.235803        -1.970029
