19
Iteration:  4339charge 0 multiplicity 1
 C        -0.117786         0.176482        -0.170754
 C         1.388977        -0.030122        -0.199071
 O         2.137819         0.444582         0.939714
 C         2.644112         0.889412        -0.321356
 C         3.542910        -0.182544        -1.035216
 O         4.682045        -0.832574        -0.424674
 C         4.107593        -1.598093         0.615008
 C         2.807339        -2.282218         0.052326
 C         2.215158        -1.114087        -0.835550
 H        -0.430989         0.493961        -1.170527
 H        -0.640125        -0.747141         0.063855
 H        -0.442619         0.830794         0.646031
 H         2.798387         1.947702        -0.515064
 H         3.737409        -0.044923        -2.127682
 H         4.796521        -2.442354         0.808420
 H         3.947794        -0.935220         1.496544
 H         3.006252        -3.199385        -0.590538
 H         2.074055        -2.670053         0.840364
 H         1.846660        -1.662200        -1.689338
