19
Iteration:  4793charge 0 multiplicity 1
 C        -0.029802         0.148070        -0.431173
 C         1.422726         0.042478        -0.146889
 O         2.091016         0.519153         1.011755
 C         2.648564         1.003317        -0.366516
 C         3.427224        -0.212102        -0.974561
 O         4.590541        -0.671674        -0.319606
 C         4.283390        -1.931434         0.280335
 C         2.790493        -2.278938         0.335376
 C         2.209907        -1.164073        -0.707400
 H        -0.206517         0.036302        -1.479719
 H        -0.654955        -0.656882         0.040743
 H        -0.357209         1.143206        -0.210066
 H         2.397069         1.982011        -0.723354
 H         3.382060        -0.094115        -2.070645
 H         5.014235        -2.641170        -0.273284
 H         4.643742        -1.792436         1.296166
 H         2.582304        -3.360203         0.043524
 H         2.328980        -2.090817         1.309747
 H         1.802441        -1.695408        -1.597512
