19
Iteration:  3196charge 0 multiplicity 1
 C        -0.060705         0.371403        -0.198350
 C         1.402086         0.014480        -0.213943
 O         2.151848         0.460289         0.970144
 C         2.608364         0.852197        -0.352181
 C         3.424409        -0.244181        -1.076172
 O         4.616534        -0.811667        -0.432115
 C         4.184770        -1.710110         0.630984
 C         2.870237        -2.303493         0.086342
 C         2.192327        -1.224234        -0.781927
 H        -0.426256         0.804712        -1.136944
 H        -0.499099        -0.541502         0.103333
 H        -0.265410         1.131608         0.525660
 H         2.714502         1.887463        -0.697641
 H         3.647872         0.052962        -2.086707
 H         4.944451        -2.486423         0.839962
 H         3.970348        -1.029091         1.450995
 H         3.220450        -3.086671        -0.665822
 H         2.165483        -2.805283         0.802589
 H         1.642757        -1.713190        -1.611533
