19
Iteration:  2229
 C         0.018510         0.028159        -0.186701
 C         1.521048         0.030057        -0.118683
 O         2.195922         0.365498         1.131182
 C         2.623262         1.034839        -0.143486
 C         3.525820        -0.084133        -0.910209
 O         4.653119        -0.766318        -0.427019
 C         3.928231        -1.734987         0.539334
 C         2.680055        -2.323153        -0.309803
 C         2.306596        -1.077838        -0.964077
 H        -0.399496        -0.992903        -0.191728
 H        -0.386762         0.436091         0.750938
 H        -0.333100         0.488455        -1.155003
 H         2.591036         2.087942        -0.106861
 H         3.749559         0.372680        -1.906376
 H         4.634740        -2.533955         0.793948
 H         3.471244        -1.168044         1.382772
 H         3.027108        -3.176821        -0.912043
 H         1.836448        -2.724608         0.416869
 H         1.858067        -1.182216        -1.941041
