19
Iteration:   450
 C        -0.018950        -0.020905        -0.022651
 C         1.494500         0.103431        -0.337770
 O         2.026094         0.348333         0.918548
 C         2.689579         1.043979        -0.097884
 C         3.576737         0.000902        -0.876138
 O         4.599206        -0.862259        -0.362230
 C         4.039672        -1.879587         0.565020
 C         2.695277        -2.234418        -0.198666
 C         2.321263        -0.977214        -1.019139
 H        -0.106241        -0.697317         0.839222
 H        -0.303013         1.029124         0.264426
 H        -0.602433        -0.350499        -0.846542
 H         2.803257         2.118974        -0.024781
 H         3.865407         0.293301        -1.894233
 H         4.655790        -2.731780         0.525628
 H         4.011357        -1.501596         1.626660
 H         2.877616        -3.094748        -0.856972
 H         2.015037        -2.501628         0.651724
 H         2.065262        -1.107075        -2.074674
