19
Iteration:  4902
 C        -0.080181         0.131825        -0.540722
 C         1.401084         0.040906        -0.123846
 O         2.151929         0.695707         0.948902
 C         2.492374         0.936887        -0.397695
 C         3.463313        -0.220438        -0.916570
 O         4.554528        -0.654167        -0.121390
 C         4.330437        -2.074374         0.078876
 C         2.851586        -2.275676         0.299544
 C         2.259066        -1.119266        -0.530844
 H        -0.106701         0.062478        -1.624198
 H        -0.616848        -0.734815         0.109226
 H        -0.647177         1.036694        -0.137988
 H         2.240693         1.908865        -0.725215
 H         3.615931        -0.325245        -1.984376
 H         4.681646        -2.640112        -0.802205
 H         5.037163        -2.349669         0.821698
 H         2.484265        -3.292141         0.017370
 H         2.485419        -2.084401         1.336517
 H         1.777453        -1.597828        -1.388835
