19
Iteration:   489
 C        -0.021029         0.200538        -0.148188
 C         1.453119        -0.034127        -0.076582
 O         2.288548         0.358153         1.030549
 C         2.614190         1.007090        -0.291359
 C         3.466315        -0.103743        -0.974941
 O         4.544140        -0.669250        -0.187607
 C         3.971966        -1.824713         0.526313
 C         2.860895        -2.418179        -0.342457
 C         2.239719        -1.087804        -0.929904
 H        -0.660580        -0.706679        -0.026202
 H        -0.374749         0.836200         0.673719
 H        -0.384465         0.669341        -1.133970
 H         2.400845         2.072758        -0.287022
 H         3.884391         0.181202        -1.948392
 H         4.885326        -2.544556         0.753380
 H         3.599806        -1.565063         1.492173
 H         3.317849        -3.097072        -1.135618
 H         2.087234        -2.955843         0.173144
 H         1.771406        -1.112517        -1.922736
