19
Iteration:  1252charge 0 multiplicity 1
 C        -0.095759        -0.077549        -0.190241
 C         1.455925         0.074030        -0.316072
 O         2.189223         0.352311         1.017729
 C         2.604829         1.033363        -0.099625
 C         3.596542        -0.008282        -0.926880
 O         4.561645        -0.658847        -0.062428
 C         4.183101        -2.121017         0.209862
 C         2.631908        -2.161964        -0.050948
 C         2.274585        -0.935034        -1.023161
 H        -0.419908        -0.912010         0.362216
 H        -0.593737         0.740698         0.341862
 H        -0.447602        -0.090154        -1.227240
 H         2.755600         2.146845        -0.067498
 H         4.081677         0.247363        -1.898365
 H         4.788354        -2.662920        -0.557893
 H         4.460531        -2.346533         1.252414
 H         2.214847        -3.248869        -0.299835
 H         2.318359        -1.810994         0.920111
 H         1.881751        -1.126464        -2.064833
