19
Iteration:   616charge 0 multiplicity 1
 C         0.015873         0.157181        -0.504167
 C         1.475719         0.108541        -0.137965
 O         2.304533         0.108716         1.222397
 C         2.580007         0.948241         0.003680
 C         3.431316        -0.031743        -0.975167
 O         4.559120        -0.728986        -0.495023
 C         4.088154        -1.860153         0.429028
 C         2.712616        -2.226046         0.041435
 C         2.222602        -0.962844        -0.946505
 H        -0.732438        -0.218232         0.228466
 H        -0.295171         1.127596        -0.851628
 H        -0.183406        -0.555895        -1.292477
 H         2.709307         2.030882         0.154725
 H         3.722430         0.381262        -1.967955
 H         4.712450        -2.643601         0.264295
 H         4.195537        -1.449784         1.541410
 H         2.788247        -3.160886        -0.465749
 H         2.138049        -2.206114         0.997570
 H         1.682271        -1.316162        -1.892842
