19
Iteration:  2892
 C        -0.035473         0.310484        -0.088340
 C         1.423999         0.041324        -0.134986
 O         2.225925         0.527715         0.961698
 C         2.572013         0.981603        -0.406593
 C         3.434935        -0.165265        -1.058923
 O         4.493985        -0.734053        -0.214200
 C         4.176850        -1.874150         0.554040
 C         2.839985        -2.436952        -0.152630
 C         2.266447        -1.209088        -0.849329
 H        -0.469932         0.341088         0.940217
 H        -0.329667         1.266940        -0.474608
 H        -0.552455        -0.506753        -0.584975
 H         2.580415         1.991426        -0.833353
 H         3.950125        -0.082795        -2.053447
 H         4.943431        -2.641165         0.371714
 H         4.011297        -1.650686         1.660571
 H         3.200886        -2.980817        -0.989196
 H         2.212872        -2.913393         0.611750
 H         1.655149        -1.623333        -1.691034
