19
Iteration:  2776charge 0 multiplicity 1
 C        -0.066104         0.343408        -0.217184
 C         1.403550         0.017838        -0.127630
 O         2.160414         0.519342         1.025541
 C         2.564937         0.949158        -0.304735
 C         3.488933        -0.189234        -0.964756
 O         4.568359        -0.762656        -0.323995
 C         4.207621        -1.922497         0.467867
 C         2.872141        -2.393171        -0.094028
 C         2.164540        -1.141528        -0.779476
 H        -0.256005         1.259062        -0.771266
 H        -0.629196        -0.529465        -0.743120
 H        -0.431658         0.420918         0.820854
 H         2.705547         2.017250        -0.573399
 H         3.731397         0.059803        -1.995190
 H         4.914832        -2.707587         0.202219
 H         4.370867        -1.597306         1.490071
 H         3.197194        -2.969528        -0.992892
 H         2.237573        -2.964837         0.594561
 H         1.734913        -1.391735        -1.736804
