19
Iteration:  3375
 C        -0.038276         0.333350         0.018472
 C         1.478626        -0.072764        -0.247952
 O         2.291865         0.559163         0.860522
 C         2.579595         0.847034        -0.489046
 C         3.481246        -0.247795        -1.067166
 O         4.398037        -0.529710        -0.012892
 C         4.172153        -1.860384         0.491535
 C         2.825313        -2.452660        -0.131442
 C         2.228042        -1.230361        -0.862087
 H        -0.717911         0.271076        -0.870726
 H        -0.630192        -0.299688         0.771034
 H         0.180929         1.370347         0.364847
 H         2.482283         1.895029        -0.740480
 H         3.881913        -0.151958        -2.113065
 H         5.100293        -2.418908         0.244826
 H         3.956675        -1.809035         1.602070
 H         2.955803        -3.268416        -0.914594
 H         2.208813        -2.919269         0.654379
 H         1.688533        -1.260832        -1.831644
