19
Iteration:  1535charge 0 multiplicity 1
 C        -0.064969         0.145601        -0.168488
 C         1.451036         0.081984        -0.321082
 O         2.016863         0.416939         0.952696
 C         2.640026         0.988430        -0.196756
 C         3.573018        -0.058738        -0.854435
 O         4.516836        -0.669045        -0.019348
 C         4.279628        -2.099238         0.073962
 C         2.707505        -2.239157        -0.008105
 C         2.308201        -1.098071        -0.879832
 H        -0.217142        -0.737269         0.544800
 H        -0.402572         1.094919         0.285036
 H        -0.739889        -0.002403        -1.131991
 H         2.626067         2.061778        -0.177310
 H         3.943970         0.392292        -1.798093
 H         4.826267        -2.576783        -0.820220
 H         4.669146        -2.332086         1.037565
 H         2.403515        -3.224718        -0.442242
 H         2.435439        -2.149538         1.027622
 H         2.042921        -1.467337        -1.920166
