19
Iteration:  4064charge 0 multiplicity 1
 C         0.035635         0.055288        -0.318190
 C         1.445819         0.003372        -0.203407
 O         2.172397         0.530797         1.011602
 C         2.635174         0.943300        -0.293158
 C         3.425460        -0.129503        -1.016751
 O         4.532561        -0.727542        -0.309239
 C         4.227551        -1.868403         0.506230
 C         2.758494        -2.202631         0.119362
 C         2.147197        -1.125130        -0.862374
 H        -0.280633        -0.593997        -1.192662
 H        -0.334467        -0.534825         0.522550
 H        -0.456239         1.025417        -0.441608
 H         2.675800         2.045858        -0.462230
 H         3.713820         0.195082        -2.049413
 H         4.924459        -2.557133         0.077738
 H         4.349430        -1.594543         1.519039
 H         2.803116        -3.178289        -0.416957
 H         2.302572        -2.467697         1.039481
 H         1.782410        -1.629295        -1.737785
