19
Iteration:   822
 C        -0.021220         0.446650        -0.396514
 C         1.418067        -0.065797        -0.013271
 O         2.264643         0.224943         1.155583
 C         2.520483         0.872095        -0.204595
 C         3.342470        -0.136533        -0.989983
 O         4.540846        -0.636686        -0.298647
 C         4.231374        -1.770995         0.447027
 C         2.908920        -2.398212        -0.209298
 C         2.153969        -1.135824        -0.824080
 H        -0.925633        -0.102733        -0.003433
 H         0.070183         1.500102        -0.218376
 H        -0.075675         0.325020        -1.512573
 H         2.390380         1.924929        -0.229063
 H         3.740966         0.074944        -1.970252
 H         5.087329        -2.442962         0.343967
 H         4.056079        -1.568344         1.514328
 H         3.126749        -3.095877        -0.984568
 H         2.258097        -2.762930         0.648265
 H         1.601047        -1.338599        -1.724922
