19
Iteration:  3006charge 0 multiplicity 1
 C        -0.009564         0.311409        -0.255783
 C         1.476016         0.020983        -0.203521
 O         2.086294         0.252876         0.992160
 C         2.690571         0.846642        -0.113348
 C         3.469780        -0.175601        -1.033974
 O         4.611235        -0.872630        -0.643303
 C         4.166247        -1.673127         0.538720
 C         2.697150        -2.101940         0.241296
 C         2.219662        -1.161014        -0.869893
 H        -0.567889        -0.502258        -0.640672
 H        -0.299559         0.425279         0.777269
 H        -0.314123         1.076351        -0.954120
 H         2.818253         1.891470        -0.211172
 H         3.535090         0.236808        -2.057770
 H         4.919137        -2.476705         0.524138
 H         4.232382        -0.932625         1.364566
 H         2.740270        -3.164630        -0.149961
 H         2.213085        -2.202681         1.207520
 H         1.910060        -1.585768        -1.820541
