19
Iteration:  2062charge 0 multiplicity 1
 C        -0.159524         0.141497        -0.351976
 C         1.384153         0.086364        -0.269796
 O         1.986726         0.302927         1.000906
 C         2.657153         0.987367        -0.077986
 C         3.565195        -0.040853        -0.771787
 O         4.645913        -0.707970        -0.045619
 C         4.299287        -2.100343        -0.133518
 C         2.821593        -2.112531         0.171530
 C         2.238998        -1.067064        -0.911315
 H        -0.585749        -0.837275        -0.120816
 H        -0.454261         0.859546         0.450681
 H        -0.632237         0.299119        -1.298814
 H         2.571982         2.130769        -0.046250
 H         3.993751         0.435804        -1.707627
 H         4.558618        -2.450473        -1.130247
 H         4.942394        -2.630325         0.525290
 H         2.280432        -3.115159         0.159030
 H         2.577739        -1.900271         1.216923
 H         1.808294        -1.374205        -1.909250
