19
Iteration:  4282
 C        -0.038723         0.314628        -0.254629
 C         1.405198        -0.049944        -0.193114
 O         2.280412         0.295471         1.006163
 C         2.539755         0.871055        -0.404015
 C         3.387468        -0.220392        -1.087580
 O         4.598816        -0.592596        -0.257965
 C         4.192876        -1.733333         0.589807
 C         2.802277        -2.266865         0.046693
 C         2.204862        -1.176548        -0.883385
 H        -0.598426         0.026979        -1.174291
 H        -0.461060        -0.322244         0.487213
 H        -0.195947         1.411703        -0.105557
 H         2.521383         1.967915        -0.453175
 H         3.722720        -0.176701        -2.138949
 H         4.958514        -2.527420         0.686537
 H         4.141189        -1.385206         1.618059
 H         2.954683        -3.233277        -0.595733
 H         2.078508        -2.325009         0.848083
 H         1.756618        -1.875264        -1.636267
