19
Iteration:  1146
 C         0.073312         0.582431        -0.546390
 C         1.329114        -0.082933        -0.065280
 O         2.034713         0.168829         1.211236
 C         2.640218         0.750583         0.034426
 C         3.334858        -0.147480        -0.934047
 O         4.526390        -0.673270        -0.598860
 C         4.263870        -1.665492         0.428294
 C         2.952208        -2.403824        -0.036167
 C         2.218953        -1.202687        -0.800138
 H        -0.856709        -0.091409        -0.609286
 H        -0.013912         1.337566         0.231816
 H         0.231351         1.157173        -1.500495
 H         2.587785         1.869199         0.043248
 H         3.430753         0.354661        -1.902855
 H         5.165642        -2.257599         0.584328
 H         4.038276        -1.015393         1.343343
 H         3.275018        -3.139484        -0.691717
 H         2.410476        -2.909693         0.767284
 H         1.860124        -1.548994        -1.754450
