19
Iteration:  3470charge 0 multiplicity 1
 C        -0.044333         0.111382        -0.192412
 C         1.406956         0.040633        -0.208099
 O         2.285254         0.345199         0.954233
 C         2.682881         0.892484        -0.297291
 C         3.422526        -0.189601        -1.018487
 O         4.610807        -0.794595        -0.461053
 C         4.116920        -1.628950         0.586101
 C         2.681410        -2.161422         0.145056
 C         2.202329        -1.111303        -0.905356
 H        -0.362068        -0.149524        -1.188914
 H        -0.431141        -0.770532         0.339287
 H        -0.394324         1.073018         0.170734
 H         2.850634         1.953999        -0.428584
 H         3.609158         0.086304        -2.038661
 H         4.774139        -2.493502         0.673362
 H         3.968633        -1.086529         1.553980
 H         2.715411        -3.195881        -0.250556
 H         2.102271        -2.358966         1.102628
 H         2.076482        -1.637319        -1.873366
