19
Iteration:  1967charge 0 multiplicity 1
 C         0.036811         0.408488        -0.273091
 C         1.392178         0.038420        -0.104865
 O         2.060041         0.303125         1.080445
 C         2.549806         0.940904        -0.156445
 C         3.374106        -0.148685        -0.896700
 O         4.515555        -0.541386        -0.211723
 C         4.298285        -1.947357         0.298093
 C         2.888152        -2.465665        -0.284273
 C         2.281831        -1.164017        -0.839662
 H        -0.642314        -0.197110         0.408263
 H        -0.068264         1.417617         0.119872
 H        -0.389956         0.229122        -1.275575
 H         2.578180         2.072796        -0.197189
 H         3.650265         0.265421        -1.859652
 H         5.117664        -2.625786         0.264822
 H         4.096291        -1.838535         1.368813
 H         2.967283        -3.188553        -1.035885
 H         2.508472        -3.140903         0.478745
 H         1.978228        -1.455224        -1.806699
