19
Iteration:  3554
 C         0.055847         0.292037        -0.575265
 C         1.408371         0.006045        -0.057468
 O         1.988717         0.501994         1.085968
 C         2.614080         0.918639        -0.232556
 C         3.353667        -0.221794        -0.898034
 O         4.547361        -0.649865        -0.422507
 C         4.444202        -1.940347         0.216313
 C         2.841881        -2.261717         0.256042
 C         2.116132        -1.226469        -0.586574
 H         0.017644         0.132009        -1.730608
 H        -0.652789        -0.438631        -0.140584
 H        -0.345618         1.322595        -0.345157
 H         2.831826         1.972935        -0.487049
 H         3.408599        -0.056220        -2.034912
 H         4.833776        -2.524124        -0.640797
 H         5.192407        -2.015882         1.003565
 H         2.611124        -3.196243        -0.198359
 H         2.561255        -2.213670         1.326257
 H         1.809859        -1.738437        -1.549649
