19
Iteration:  1579
 C         0.067324        -0.075924        -0.294939
 C         1.512383         0.065745        -0.122518
 O         2.146370         0.439986         1.099426
 C         2.575629         1.102581        -0.258761
 C         3.551978        -0.015060        -0.882616
 O         4.542121        -0.679546        -0.126094
 C         4.123989        -2.056729         0.106644
 C         2.576027        -2.297989        -0.007193
 C         2.377416        -0.988992        -0.813701
 H        -0.697393        -0.395641         0.475431
 H        -0.353102         0.900630        -0.537920
 H        -0.314726        -0.739900        -1.193499
 H         2.592694         2.124583        -0.596706
 H         3.911928         0.140847        -1.910844
 H         4.632277        -2.671310        -0.710543
 H         4.376501        -2.354730         1.071694
 H         2.371298        -3.128524        -0.672787
 H         2.073307        -2.145704         0.902921
 H         1.845049        -1.023324        -1.830410
