19
Iteration:  1149
 C         0.106908         0.594409        -0.539128
 C         1.352061        -0.066381        -0.060698
 O         2.013428         0.167683         1.203022
 C         2.617260         0.775250         0.010914
 C         3.322552        -0.187346        -0.877794
 O         4.492818        -0.671625        -0.589074
 C         4.269120        -1.652071         0.395470
 C         2.994336        -2.416816        -0.045173
 C         2.208994        -1.217620        -0.808998
 H        -0.798134        -0.055971        -0.593820
 H        -0.045542         1.373738         0.188152
 H         0.307952         1.103232        -1.493512
 H         2.601024         1.875793         0.022179
 H         3.398694         0.358662        -1.840702
 H         5.171813        -2.234366         0.610933
 H         4.145652        -1.117590         1.321678
 H         3.287442        -3.190890        -0.776370
 H         2.394843        -2.848619         0.882861
 H         1.836383        -1.501904        -1.762375
