19
Iteration:  2766charge 0 multiplicity 1
 C        -0.037027         0.476285        -0.225706
 C         1.357360         0.060497        -0.167623
 O         2.129946         0.496285         1.020037
 C         2.631680         0.845364        -0.260486
 C         3.369862        -0.222698        -0.982953
 O         4.613961        -0.653655        -0.288835
 C         4.289147        -1.943238         0.375578
 C         2.884324        -2.426351        -0.112253
 C         2.171947        -1.207862        -0.699376
 H        -0.343556         1.187074        -0.961731
 H        -0.515272        -0.469109        -0.771584
 H        -0.684801         0.556503         0.665261
 H         2.564464         1.965292        -0.380202
 H         3.548610        -0.034655        -2.023345
 H         5.141297        -2.631133         0.354527
 H         4.173104        -1.703701         1.429846
 H         2.923196        -3.292848        -0.808185
 H         2.328229        -2.934321         0.651094
 H         1.822511        -1.433904        -1.701301
