19
Iteration:  4304
 C         0.005533         0.335972        -0.104134
 C         1.428487        -0.118607        -0.281846
 O         2.223855         0.265204         0.879472
 C         2.646465         0.842765        -0.378332
 C         3.419038        -0.133411        -1.036460
 O         4.487053        -0.635866        -0.332086
 C         4.108395        -1.590304         0.621965
 C         2.791134        -2.365005         0.098022
 C         2.243161        -1.227819        -0.867976
 H        -0.324914         0.420031        -1.172365
 H        -0.638732        -0.396528         0.235246
 H        -0.058188         1.392563         0.208884
 H         2.623000         1.923974        -0.329303
 H         3.814746         0.145071        -2.035371
 H         4.882101        -2.364950         0.768706
 H         4.103119        -1.146483         1.605256
 H         3.304861        -3.270303        -0.397939
 H         2.128316        -2.494258         0.954107
 H         1.946157        -1.539820        -1.943355
