19
Iteration:  4413
 C        -0.130426         0.273384        -0.272592
 C         1.397277        -0.005274        -0.270502
 O         2.145639         0.453927         0.930149
 C         2.575956         0.921741        -0.337699
 C         3.423048        -0.209784        -1.034092
 O         4.556840        -0.663705        -0.237019
 C         4.363981        -1.885959         0.377052
 C         2.815907        -2.224147         0.197271
 C         2.260542        -1.226420        -0.796342
 H        -0.747373        -0.017284        -1.191757
 H        -0.579879        -0.298195         0.599802
 H        -0.291285         1.367656        -0.145424
 H         2.565267         1.997261        -0.273909
 H         3.817965         0.211507        -1.954159
 H         4.956904        -2.781411         0.084962
 H         4.614287        -1.732469         1.442777
 H         2.777467        -3.279392        -0.176770
 H         2.217920        -2.321408         1.063544
 H         1.819475        -1.838548        -1.626706
