19
Iteration:  1301
 C        -0.100971         0.225597        -0.143741
 C         1.442591        -0.007710        -0.128080
 O         2.190657         0.663967         0.984509
 C         2.501780         0.960128        -0.340579
 C         3.543585        -0.157873        -0.866913
 O         4.331827        -0.660415         0.247818
 C         4.357072        -2.037493         0.024728
 C         2.825006        -2.444903        -0.323835
 C         2.329772        -1.132117        -0.878685
 H        -0.651077        -0.682125         0.257352
 H        -0.331094         0.880463         0.748741
 H        -0.546388         0.650934        -1.041254
 H         2.407741         1.981692        -0.646016
 H         4.237839         0.087707        -1.682126
 H         4.989215        -2.238732        -0.816022
 H         4.633905        -2.451712         0.995688
 H         2.824787        -3.181906        -1.072778
 H         2.326019        -2.947623         0.534277
 H         1.822494        -1.342266        -1.815623
