19
Iteration:  3970charge 0 multiplicity 1
 C        -0.059835         0.130161        -0.446795
 C         1.401126         0.032347        -0.171204
 O         2.253939         0.495280         0.958293
 C         2.539500         0.967932        -0.360634
 C         3.384552        -0.159961        -0.909131
 O         4.527522        -0.591432        -0.162300
 C         4.313707        -2.000504         0.214610
 C         2.823092        -2.282442         0.202559
 C         2.223023        -1.165899        -0.658644
 H        -0.173769         0.402816        -1.498196
 H        -0.639620        -0.755108        -0.197668
 H        -0.443715         1.036148         0.068491
 H         2.251918         2.041012        -0.370074
 H         3.590100        -0.281806        -1.955767
 H         4.875301        -2.628847        -0.456131
 H         4.712172        -2.027247         1.260976
 H         2.588925        -3.223135        -0.260150
 H         2.284602        -2.307671         1.186686
 H         1.817758        -1.299435        -1.679956
