19
Iteration:   946
 C        -0.060973         0.146578        -0.233242
 C         1.449504         0.061252        -0.141299
 O         2.321696         0.359448         1.064778
 C         2.547466         0.994410        -0.202412
 C         3.430137        -0.070516        -0.939584
 O         4.505741        -0.663902        -0.185567
 C         4.165601        -2.038651         0.254991
 C         2.738914        -2.300215        -0.105188
 C         2.287172        -1.023644        -0.892754
 H        -0.550084        -0.557946         0.469879
 H        -0.462971         1.177801         0.058082
 H        -0.147966        -0.070463        -1.325988
 H         2.605041         2.075388        -0.416957
 H         3.800682         0.102325        -1.967492
 H         4.849774        -2.776651         0.049444
 H         4.214403        -1.918279         1.372835
 H         2.504240        -3.211092        -0.695285
 H         2.170322        -2.294729         0.760136
 H         1.952928        -1.213338        -1.975309
