19
Iteration:  4994charge 0 multiplicity 1
 C         0.058021         0.190245        -0.239129
 C         1.470103         0.042019        -0.208435
 O         2.172525         0.449884         0.926867
 C         2.570677         0.920952        -0.434268
 C         3.414637        -0.194861        -1.025638
 O         4.464753        -0.601569        -0.174462
 C         4.266615        -1.847836         0.401608
 C         2.733953        -2.265474         0.208062
 C         2.229630        -1.241678        -0.863090
 H        -0.085875        -0.131581        -1.313276
 H        -0.274896        -0.570763         0.381936
 H        -0.382965         1.128212        -0.004032
 H         2.671833         2.039211        -0.377176
 H         3.761096        -0.069888        -2.060932
 H         4.879749        -2.604029        -0.095538
 H         4.608080        -1.857295         1.471993
 H         2.699108        -3.272857        -0.200708
 H         2.196048        -2.236489         1.144025
 H         1.668456        -1.560190        -1.779012
