19
Iteration:  4573
 C        -0.038769         0.330902        -0.409334
 C         1.388178        -0.035547        -0.190233
 O         2.110817         0.391242         0.934679
 C         2.570541         0.884983        -0.348580
 C         3.378556        -0.229573        -1.046487
 O         4.547379        -0.581253        -0.160967
 C         4.395000        -1.964794         0.185103
 C         2.817757        -2.184340         0.425878
 C         2.224527        -1.198299        -0.764595
 H        -0.192506         0.474803        -1.446343
 H        -0.612181        -0.534718        -0.081452
 H        -0.336272         1.100437         0.215149
 H         2.508211         1.948795        -0.397684
 H         3.630413        -0.043905        -2.160047
 H         4.809596        -2.457749        -0.726163
 H         4.914237        -2.338449         1.049012
 H         2.369823        -3.225147         0.428935
 H         2.614881        -1.673896         1.403973
 H         1.795894        -1.777067        -1.606949
