19
Iteration:  2904charge 0 multiplicity 1
 C        -0.090848         0.360561        -0.191344
 C         1.409377         0.050881        -0.150622
 O         2.261137         0.550904         0.922657
 C         2.558794         0.935535        -0.354721
 C         3.366898        -0.239720        -0.985610
 O         4.588601        -0.686965        -0.268990
 C         4.177495        -1.960707         0.506104
 C         2.948640        -2.447928        -0.136635
 C         2.166343        -1.163989        -0.689869
 H        -0.486798         0.051399         0.752716
 H        -0.303878         1.411713        -0.457460
 H        -0.532174        -0.221982        -0.980836
 H         2.502498         2.051207        -0.478397
 H         3.530682        -0.012954        -2.073075
 H         5.109962        -2.514980         0.529877
 H         3.980124        -1.659800         1.588402
 H         3.067396        -3.120581        -0.947333
 H         2.354595        -3.115042         0.526695
 H         1.611667        -1.433636        -1.611047
