19
Iteration:   766charge 0 multiplicity 1
 C         0.010098        -0.072059        -0.009366
 C         1.483453         0.083287        -0.269290
 O         2.078049         0.350809         0.946705
 C         2.693589         1.031217        -0.245098
 C         3.519180        -0.018226        -0.919107
 O         4.645062        -0.846384        -0.335145
 C         4.009252        -1.848500         0.533866
 C         2.678203        -2.127700        -0.111551
 C         2.343847        -0.992856        -1.044792
 H        -0.030861        -1.042898         0.568231
 H        -0.570272         0.620402         0.617349
 H        -0.526951        -0.214576        -0.961853
 H         2.785605         2.081470        -0.067194
 H         4.024517         0.365941        -1.797336
 H         4.606006        -2.807056         0.442477
 H         3.913527        -1.544701         1.566143
 H         2.566688        -3.049783        -0.629789
 H         1.709301        -2.191083         0.511544
 H         1.972292        -1.278343        -1.985210
