19
Iteration:   584charge 0 multiplicity 1
 C        -0.075893         0.107393        -0.288540
 C         1.408775         0.092052        -0.238475
 O         1.953789         0.232048         1.066184
 C         2.759588         0.922557         0.017600
 C         3.536131        -0.060110        -0.829847
 O         4.684694        -0.790752        -0.532636
 C         4.111044        -1.870008         0.361727
 C         2.724957        -2.169165         0.005334
 C         2.325821        -0.980343        -0.952556
 H        -0.429888        -0.456226         0.554425
 H        -0.439331         1.095723        -0.177937
 H        -0.446595        -0.311390        -1.208627
 H         3.069904         1.975638         0.130678
 H         3.763220         0.410207        -1.808161
 H         4.711043        -2.692602         0.331147
 H         4.172549        -1.442549         1.410455
 H         2.567362        -3.175327        -0.364080
 H         2.187128        -2.079669         0.986066
 H         2.008605        -1.229997        -2.026472
