19
Iteration:  2890charge 0 multiplicity 1
 C        -0.030851         0.298371        -0.073348
 C         1.441580         0.033525        -0.131232
 O         2.220028         0.530237         0.969557
 C         2.577119         0.977196        -0.429035
 C         3.452088        -0.168320        -1.057264
 O         4.478125        -0.735673        -0.208001
 C         4.172139        -1.854645         0.549523
 C         2.830540        -2.421257        -0.142651
 C         2.267392        -1.206918        -0.872254
 H        -0.464117         0.390046         1.003392
 H        -0.306033         1.239243        -0.480494
 H        -0.583644        -0.553073        -0.547990
 H         2.583843         1.975432        -0.790347
 H         3.965689        -0.048491        -2.030884
 H         4.894923        -2.675907         0.380864
 H         4.011632        -1.646434         1.617187
 H         3.214167        -3.073075        -0.957009
 H         2.154656        -2.933651         0.546860
 H         1.703954        -1.607008        -1.774730
