19
Iteration:  4726
 C        -0.098405         0.171101        -0.041566
 C         1.443085        -0.037789        -0.289069
 O         2.204620         0.510613         0.795675
 C         2.599437         0.948534        -0.497179
 C         3.431630        -0.232071        -0.995776
 O         4.557640        -0.602772        -0.135100
 C         4.189930        -1.871387         0.557429
 C         2.787925        -2.287144         0.074926
 C         2.258591        -1.186992        -0.868313
 H        -0.496612         0.655914        -0.929898
 H        -0.657522        -0.782916         0.227229
 H        -0.097290         0.980714         0.626649
 H         2.633359         2.017816        -0.826238
 H         3.902495        -0.104184        -2.019822
 H         4.805512        -2.807632         0.250146
 H         4.211229        -1.655798         1.625443
 H         2.979604        -3.224327        -0.576092
 H         2.159943        -2.552083         0.943624
 H         1.882316        -1.427015        -1.903704
