19
Iteration:   351
 C        -0.208776         0.623104        -0.216573
 C         1.312750         0.046324        -0.170584
 O         1.771104         0.365572         1.141827
 C         2.546697         0.862442        -0.112490
 C         3.530054        -0.177246        -0.887385
 O         4.726264        -0.798059        -0.453743
 C         4.353054        -1.908894         0.392223
 C         3.025457        -2.439287        -0.150227
 C         2.373076        -1.193719        -0.925272
 H        -0.390341         1.134187         0.759560
 H        -0.307403         1.327079        -1.013812
 H        -0.908560        -0.174277        -0.353403
 H         2.559996         1.930186        -0.237206
 H         3.936710         0.244473        -1.820711
 H         5.167186        -2.542284         0.425694
 H         4.208971        -1.659682         1.457194
 H         3.180328        -3.334991        -0.878569
 H         2.341438        -2.614920         0.640796
 H         1.924872        -1.482895        -1.870671
