19
Iteration:  4419charge 0 multiplicity 1
 C        -0.094464         0.307447        -0.256457
 C         1.393203        -0.049140        -0.293036
 O         2.089692         0.416276         0.918503
 C         2.589601         0.895674        -0.353784
 C         3.473150        -0.202008        -0.993064
 O         4.551064        -0.608765        -0.235234
 C         4.352017        -1.900268         0.384951
 C         2.820137        -2.233492         0.237057
 C         2.217464        -1.213171        -0.807879
 H        -0.840465         0.026251        -0.980429
 H        -0.421619        -0.255382         0.664375
 H        -0.095126         1.394571        -0.269767
 H         2.665588         2.011295        -0.390249
 H         3.727690         0.120965        -2.048070
 H         4.868471        -2.776507        -0.106671
 H         4.951225        -1.643158         1.305385
 H         2.699656        -3.163033        -0.322595
 H         2.087840        -2.362645         1.115767
 H         1.953155        -1.860313        -1.640600
