19
Iteration:  4954charge 0 multiplicity 1
 C        -0.131183         0.158797        -0.127853
 C         1.413376         0.042505        -0.329918
 O         2.140277         0.528195         0.792314
 C         2.528697         0.999696        -0.570384
 C         3.504785        -0.211459        -0.902326
 O         4.582437        -0.609831         0.046197
 C         4.295638        -2.041409         0.193925
 C         2.770455        -2.242115         0.296932
 C         2.257227        -1.143990        -0.807535
 H        -0.650291         0.414206        -1.082720
 H        -0.449103        -0.924411         0.047423
 H        -0.531705         0.900056         0.562098
 H         2.846613         1.969832        -0.783065
 H         4.017756        -0.064599        -1.905821
 H         4.683309        -2.617736        -0.694330
 H         4.871388        -2.252202         1.140742
 H         2.528332        -3.340852         0.003908
 H         2.274052        -2.057075         1.239281
 H         2.041031        -1.782202        -1.699048
