19
Iteration:  1942
 C        -0.075538         0.362858        -0.113526
 C         1.339422        -0.104131        -0.167839
 O         2.110280         0.303560         1.059065
 C         2.467638         0.893599        -0.154907
 C         3.584142        -0.094667        -0.956938
 O         4.626515        -0.721528        -0.301534
 C         4.121467        -1.816431         0.497876
 C         2.899731        -2.284559        -0.299361
 C         2.315990        -1.104087        -1.005218
 H        -0.763619        -0.256561         0.478690
 H        -0.062246         1.360913         0.433618
 H        -0.527066         0.449737        -1.087477
 H         2.384192         1.975873        -0.017461
 H         4.058622         0.381893        -1.819992
 H         4.893701        -2.693561         0.606699
 H         3.912471        -1.562299         1.518622
 H         3.193682        -3.093138        -0.977845
 H         2.262798        -2.881898         0.347924
 H         1.890217        -1.559500        -1.931879
