19
Iteration:  4277charge 0 multiplicity 1
 C        -0.042102         0.311143        -0.229897
 C         1.414655        -0.028769        -0.222063
 O         2.247171         0.350204         1.045007
 C         2.559271         0.842760        -0.425824
 C         3.362346        -0.216813        -1.083193
 O         4.585492        -0.629826        -0.267356
 C         4.237826        -1.763797         0.595234
 C         2.800725        -2.266591         0.015971
 C         2.212946        -1.163076        -0.860410
 H        -0.471719        -0.117128        -1.144550
 H        -0.565954        -0.458850         0.434104
 H        -0.317623         1.353616        -0.332651
 H         2.465712         1.921715        -0.448677
 H         3.785779        -0.075837        -2.075565
 H         4.949780        -2.608967         0.597469
 H         4.286008        -1.371470         1.642017
 H         3.052071        -3.175705        -0.409808
 H         2.080075        -2.339532         0.861001
 H         1.734115        -1.561273        -1.769449
