19
Iteration:  4738
 C         0.009127         0.184434        -0.154978
 C         1.393206         0.037794        -0.275919
 O         2.133295         0.617873         0.873309
 C         2.547975         0.897087        -0.491676
 C         3.505971        -0.208129        -1.023548
 O         4.570811        -0.609491        -0.152698
 C         4.197706        -1.901405         0.472831
 C         2.780829        -2.383864         0.119659
 C         2.250008        -1.173940        -0.810542
 H        -0.604832         0.522914        -0.937364
 H        -0.449316        -0.781610         0.184106
 H        -0.182919         0.651033         0.756506
 H         2.738426         1.986873        -0.553378
 H         3.694736        -0.206850        -2.158134
 H         5.104829        -2.603876         0.188876
 H         4.405167        -1.743084         1.527385
 H         2.790339        -3.352350        -0.526991
 H         2.068314        -2.607327         0.917609
 H         1.815949        -1.738243        -1.687558
