19
Iteration:   236
 C        -0.053250         0.191655        -0.050970
 C         1.367867         0.017104        -0.304787
 O         1.977008         0.486928         1.034254
 C         2.645550         0.883104        -0.174620
 C         3.552913        -0.050783        -0.792237
 O         4.651531        -0.737083        -0.185437
 C         4.109111        -1.948935         0.380563
 C         2.823425        -2.349027        -0.370046
 C         2.360251        -1.073634        -0.969571
 H        -0.149125         1.155316         0.479816
 H        -0.797473         0.121750        -0.959751
 H        -0.298901        -0.649714         0.756949
 H         2.725957         1.927808        -0.413570
 H         3.838606         0.403837        -1.743475
 H         5.006013        -2.592400         0.493421
 H         3.768411        -1.771938         1.430179
 H         2.992749        -3.070956        -1.252220
 H         1.992429        -2.830487         0.328595
 H         2.059153        -1.053730        -2.043866
