19
Iteration:  4172
 C         0.016872         0.250104        -0.267420
 C         1.428944        -0.089489        -0.200852
 O         2.230473         0.285845         0.940319
 C         2.619363         0.865100        -0.305650
 C         3.390413        -0.184206        -1.104135
 O         4.516685        -0.621505        -0.376769
 C         4.140408        -1.696725         0.623723
 C         2.801251        -2.221240         0.152975
 C         2.234285        -1.182079        -0.878617
 H        -0.193204         0.468085        -1.367954
 H        -0.717805        -0.420578         0.175592
 H        -0.054614         1.175484         0.347944
 H         2.686786         1.966416        -0.257506
 H         3.662219         0.037781        -2.158926
 H         5.021882        -2.422592         0.547281
 H         4.184239        -1.265298         1.666744
 H         2.869934        -3.329416        -0.243050
 H         2.111470        -2.272198         0.991246
 H         1.761358        -1.798647        -1.692130
