19
Iteration:   205charge 0 multiplicity 1
 C         0.004093         0.225153        -0.240388
 C         1.480761         0.007219         0.027843
 O         2.268205         0.424084         1.112470
 C         2.507090         0.990501        -0.252264
 C         3.463423        -0.102421        -1.039982
 O         4.456750        -0.646190        -0.068188
 C         4.060668        -1.976669         0.449180
 C         2.923741        -2.398933        -0.456213
 C         2.237125        -1.088167        -0.861962
 H        -0.342862         1.117347         0.277824
 H        -0.037819         0.361620        -1.377256
 H        -0.670003        -0.710973        -0.033691
 H         2.260717         2.057664        -0.328492
 H         3.838927         0.141504        -2.056862
 H         5.049311        -2.547898         0.456318
 H         3.704540        -1.827485         1.442886
 H         3.468881        -2.707032        -1.504223
 H         2.242290        -3.275913        -0.086994
 H         1.630166        -1.262029        -1.718400
