19
Iteration:   609charge 0 multiplicity 1
 C         0.049728         0.108703        -0.474436
 C         1.422122         0.131703        -0.182094
 O         2.263604         0.094517         1.214633
 C         2.608732         0.953200         0.049890
 C         3.487567        -0.030759        -0.987280
 O         4.565266        -0.744607        -0.523916
 C         4.123521        -1.830672         0.446431
 C         2.642549        -2.156900         0.075052
 C         2.195038        -0.963581        -0.948410
 H        -0.548119        -0.332525         0.267832
 H        -0.352137         1.039649        -0.827941
 H        -0.033127        -0.629380        -1.290607
 H         2.809076         1.994742         0.178050
 H         3.872972         0.359189        -1.947570
 H         4.783489        -2.729093         0.179815
 H         4.315238        -1.523959         1.408307
 H         2.618861        -3.143886        -0.515439
 H         2.032925        -2.183659         0.940026
 H         1.754824        -1.324272        -1.914768
