19
Iteration:  1719
 C         0.014141         0.085475        -0.461842
 C         1.460201         0.070496        -0.137481
 O         1.881292         0.483213         1.118907
 C         2.594947         1.021100        -0.008790
 C         3.575601        -0.037072        -0.776619
 O         4.619472        -0.750652        -0.267493
 C         4.223331        -2.167241        -0.075567
 C         2.795048        -2.188853         0.146296
 C         2.281322        -1.034849        -0.844004
 H        -0.245510        -0.961266        -0.380542
 H        -0.558888         0.564625         0.272497
 H        -0.292445         0.314058        -1.524977
 H         2.572070         2.112472        -0.168373
 H         3.873141         0.422988        -1.758535
 H         4.541270        -2.725445        -0.994971
 H         4.818503        -2.499938         0.851466
 H         2.422286        -3.244923        -0.069516
 H         2.683126        -1.780808         1.179859
 H         1.699417        -1.236087        -1.845580
