19
Iteration:  2233charge 0 multiplicity 1
 C        -0.005192         0.066121        -0.185414
 C         1.507646         0.009619        -0.128642
 O         2.174986         0.392845         1.124830
 C         2.635125         0.998523        -0.160593
 C         3.511060        -0.066727        -0.903164
 O         4.647687        -0.760068        -0.421738
 C         3.948851        -1.762415         0.544691
 C         2.675351        -2.362668        -0.334117
 C         2.343725        -1.051502        -0.910030
 H        -0.388916        -0.973804        -0.164686
 H        -0.411456         0.378858         0.835928
 H        -0.368614         0.558208        -1.086072
 H         2.573839         2.120104        -0.258221
 H         3.758691         0.354022        -1.876352
 H         4.588816        -2.596249         0.673919
 H         3.550121        -1.177027         1.356427
 H         3.145770        -3.143426        -0.984090
 H         1.933681        -2.686890         0.384190
 H         1.930040        -1.260078        -1.927438
