19
Iteration:  1984charge 0 multiplicity 1
 C        -0.071796         0.325912        -0.383952
 C         1.421494         0.020666        -0.094654
 O         2.120715         0.329712         1.145964
 C         2.603121         0.951486        -0.118555
 C         3.428657        -0.075560        -0.930804
 O         4.505062        -0.621792        -0.152615
 C         4.289156        -1.940874         0.208486
 C         2.927464        -2.407068        -0.201786
 C         2.155518        -1.146510        -0.773236
 H        -0.698504        -0.327800         0.177423
 H        -0.334662         1.420038        -0.315262
 H        -0.161738         0.170356        -1.449677
 H         2.715871         2.036724        -0.118848
 H         3.677967         0.156246        -2.013792
 H         5.133517        -2.515709        -0.388610
 H         4.616188        -2.072747         1.256596
 H         3.062147        -3.176230        -1.085346
 H         2.293899        -2.868146         0.594355
 H         1.499615        -1.215639        -1.722040
