19
Iteration:  4061
 C         0.021841         0.051093        -0.296244
 C         1.437821         0.014017        -0.213356
 O         2.151085         0.526243         0.997917
 C         2.647957         0.944805        -0.307463
 C         3.427998        -0.141496        -1.027802
 O         4.547519        -0.728506        -0.281352
 C         4.252935        -1.869367         0.486659
 C         2.757918        -2.188591         0.106042
 C         2.172541        -1.128107        -0.870820
 H        -0.308364        -0.515228        -1.175832
 H        -0.448661        -0.477863         0.598007
 H        -0.430262         1.050309        -0.383656
 H         2.633164         2.041001        -0.323147
 H         3.608839         0.193025        -2.068562
 H         4.967405        -2.636485         0.128163
 H         4.332476        -1.587543         1.580356
 H         2.707822        -3.219780        -0.402189
 H         2.256616        -2.410695         1.085046
 H         1.741575        -1.710793        -1.753703
