19
Iteration:  4855
 C        -0.087564         0.336762        -0.444331
 C         1.393416        -0.039120        -0.310536
 O         1.951564         0.454808         1.007951
 C         2.527671         0.874593        -0.277951
 C         3.416563        -0.212434        -0.931934
 O         4.604150        -0.699459        -0.325007
 C         4.472111        -2.011011         0.144424
 C         2.845858        -2.078965         0.477779
 C         2.280978        -1.227959        -0.708941
 H        -0.590159        -0.110391        -1.379776
 H        -0.729922         0.240672         0.524863
 H        -0.101361         1.417686        -0.617962
 H         2.497828         1.959058        -0.518005
 H         3.682946         0.072212        -1.966245
 H         4.967000        -2.694473        -0.538702
 H         4.946334        -2.217595         1.137409
 H         2.376948        -3.118530         0.387342
 H         2.709686        -1.764603         1.499130
 H         2.020111        -1.902786        -1.561825
