19
Iteration:  2454charge 0 multiplicity 1
 C        -0.099068         0.578119        -0.327982
 C         1.352310        -0.054576        -0.294234
 O         2.058730         0.290422         1.036880
 C         2.557675         0.801290        -0.196457
 C         3.423363        -0.201358        -0.979201
 O         4.580841        -0.585541        -0.287289
 C         4.377542        -1.967467         0.280967
 C         2.811799        -2.236536         0.180775
 C         2.295522        -1.259242        -0.788537
 H         0.232660         1.429145        -1.053905
 H        -0.972538        -0.009756        -0.729476
 H        -0.331556         1.036480         0.697032
 H         2.632966         1.868992        -0.236106
 H         3.581239         0.099768        -2.032789
 H         4.875916        -2.671591        -0.381233
 H         4.779753        -2.055722         1.301393
 H         2.736485        -3.312079        -0.259650
 H         2.482397        -2.171511         1.230521
 H         1.978781        -1.750224        -1.755471
