19
Iteration:   905
 C        -0.018154         0.194329        -0.279872
 C         1.505590         0.152277        -0.283185
 O         1.993971         0.129323         1.064092
 C         2.708467         0.900995         0.008581
 C         3.452630        -0.114281        -0.950528
 O         4.597926        -0.792928        -0.531260
 C         4.194535        -1.842142         0.385510
 C         2.705336        -2.072584         0.070983
 C         2.305244        -1.027162        -0.914648
 H        -0.253385        -0.821167         0.022430
 H        -0.484326         0.827293         0.556763
 H        -0.407878         0.365920        -1.276112
 H         2.745292         1.932686         0.313409
 H         3.621022         0.359374        -1.939584
 H         5.014046        -2.658494         0.181126
 H         4.219403        -1.503716         1.431970
 H         2.388285        -3.126560        -0.170831
 H         2.256685        -1.932877         1.061728
 H         2.050934        -1.459699        -1.884428
