19
Iteration:  1297
 C        -0.075212         0.184533        -0.131111
 C         1.430267        -0.010600        -0.140687
 O         2.190762         0.661212         0.972732
 C         2.525278         0.957944        -0.319696
 C         3.565639        -0.155546        -0.882621
 O         4.362938        -0.628969         0.270186
 C         4.327263        -2.004177         0.018209
 C         2.764777        -2.473858        -0.322242
 C         2.296445        -1.128877        -0.885294
 H        -0.577452        -0.704428         0.181576
 H        -0.156389         0.823061         0.694078
 H        -0.497541         0.605811        -1.051056
 H         2.398196         2.042122        -0.544488
 H         4.208739         0.105750        -1.722710
 H         4.989007        -2.358446        -0.821769
 H         4.679127        -2.436317         1.006444
 H         2.882578        -3.251171        -1.111284
 H         2.260224        -2.791990         0.577138
 H         1.798575        -1.301887        -1.838308
