19
Iteration:  4470charge 0 multiplicity 1
 C        -0.092322         0.213062        -0.339834
 C         1.390553         0.001924        -0.215939
 O         2.147484         0.495383         0.931343
 C         2.574023         0.889824        -0.382443
 C         3.413031        -0.256298        -0.985205
 O         4.528336        -0.590400        -0.111489
 C         4.314725        -2.001754         0.135744
 C         2.850150        -2.212593         0.324477
 C         2.274731        -1.130567        -0.698853
 H        -0.373553        -0.290567        -1.294051
 H        -0.714235        -0.283232         0.387661
 H        -0.330978         1.319611        -0.459872
 H         2.521818         1.972407        -0.541157
 H         3.694284         0.074588        -2.011359
 H         4.658191        -2.654012        -0.704943
 H         4.940676        -2.272016         1.036378
 H         2.643054        -3.250225         0.007664
 H         2.409434        -1.861257         1.290665
 H         1.903530        -1.601643        -1.600493
