19
Iteration:  4626
 C        -0.005650         0.212264        -0.281230
 C         1.419235         0.058682        -0.221622
 O         2.015529         0.537790         1.028038
 C         2.584641         0.945359        -0.335769
 C         3.431356        -0.206199        -0.919377
 O         4.626784        -0.768702        -0.420510
 C         4.236985        -1.816676         0.483248
 C         2.886353        -2.310300         0.093694
 C         2.206568        -1.179070        -0.800979
 H        -0.386792        -0.275817        -1.187806
 H        -0.401780        -0.221308         0.644996
 H        -0.117204         1.282615        -0.297297
 H         2.584497         1.981347        -0.605817
 H         3.562799        -0.085517        -2.000896
 H         5.074793        -2.539109         0.300705
 H         4.243014        -1.607468         1.574965
 H         2.755171        -3.246396        -0.502609
 H         2.339023        -2.611171         1.055029
 H         1.818304        -1.755144        -1.645569
