19
Iteration:  3673charge 0 multiplicity 1
 C        -0.039294         0.225551        -0.317240
 C         1.399619         0.017995        -0.072263
 O         2.254141         0.574018         0.969907
 C         2.535977         0.963670        -0.327171
 C         3.433836        -0.191732        -0.991142
 O         4.408908        -0.585901        -0.095027
 C         4.360532        -1.928808         0.279061
 C         2.819040        -2.427392        -0.002657
 C         2.187204        -1.236458        -0.735229
 H        -0.287818        -0.213791        -1.298332
 H        -0.750506        -0.182709         0.311638
 H        -0.072568         1.311392        -0.361641
 H         2.688228         1.936351        -0.710145
 H         3.861327        -0.101680        -2.000396
 H         4.940641        -2.545594        -0.432331
 H         4.575957        -2.093643         1.325481
 H         2.920339        -3.236224        -0.716025
 H         2.286590        -2.653691         0.906522
 H         1.726103        -1.423886        -1.733068
