19
Iteration:  3161
 C         0.048652         0.018878        -0.046554
 C         1.523237         0.022432        -0.192502
 O         2.330172         0.482671         0.891135
 C         2.659423         0.944605        -0.463352
 C         3.491220        -0.115297        -1.102298
 O         4.614669        -0.774537        -0.316725
 C         3.940722        -1.716077         0.638481
 C         2.613748        -2.255197         0.065688
 C         2.196941        -1.123639        -0.918436
 H        -0.328060        -0.592313        -0.903483
 H        -0.295696        -0.592141         0.753669
 H        -0.442555         0.948879         0.208803
 H         2.693099         2.056048        -0.626331
 H         3.924054         0.136491        -2.075919
 H         4.611775        -2.583148         0.962475
 H         3.854806        -1.177140         1.628454
 H         2.693755        -3.176482        -0.621938
 H         1.739583        -2.418150         0.738921
 H         1.621517        -1.566175        -1.763077
