19
Iteration:  2465charge 0 multiplicity 1
 C        -0.080142         0.518538        -0.287654
 C         1.342410         0.004812        -0.221486
 O         2.081931         0.306588         0.958572
 C         2.578608         0.872163        -0.240451
 C         3.417924        -0.154275        -0.937566
 O         4.608027        -0.691161        -0.249419
 C         4.429721        -1.936044         0.320658
 C         2.820817        -2.277513         0.166636
 C         2.187597        -1.241903        -0.885627
 H        -0.337144         1.410677        -1.034684
 H        -0.782906        -0.296619        -0.594254
 H        -0.427570         0.910707         0.740534
 H         2.683126         1.939763        -0.330778
 H         3.743569         0.229986        -1.921619
 H         5.013329        -2.693827        -0.224738
 H         4.817196        -1.905688         1.356319
 H         2.604434        -3.363001        -0.193696
 H         2.168943        -2.204377         1.074342
 H         1.977954        -1.640228        -1.916049
