19
Iteration:   793
 C        -0.099584         0.195436        -0.154476
 C         1.467877         0.027874        -0.342564
 O         2.082314         0.333713         1.066164
 C         2.653102         0.952068        -0.136780
 C         3.490386        -0.087305        -0.924849
 O         4.632816        -0.731594        -0.343595
 C         4.117543        -1.814234         0.455113
 C         2.775924        -2.325314        -0.136948
 C         2.333195        -1.104639        -0.904838
 H        -0.379194        -0.381082         0.777742
 H        -0.221450         1.262655         0.141960
 H        -0.886897         0.029978        -0.949344
 H         2.617789         2.060363        -0.181066
 H         3.778660         0.240056        -1.950391
 H         4.819515        -2.601846         0.303305
 H         4.022643        -1.580056         1.585723
 H         2.883964        -3.186651        -0.868102
 H         2.020384        -2.580248         0.544524
 H         1.911354        -1.356943        -1.948745
