19
Iteration:  4978
 C        -0.043973         0.138972        -0.232884
 C         1.505294        -0.069485        -0.246130
 O         2.222507         0.491957         0.919574
 C         2.566753         0.928201        -0.455136
 C         3.478412        -0.226896        -1.046738
 O         4.437615        -0.548959        -0.060796
 C         4.217138        -1.968446         0.315727
 C         2.742763        -2.166482         0.190711
 C         2.290453        -1.190103        -0.825093
 H        -0.585888         0.318099        -1.146912
 H        -0.583638        -0.731362         0.372213
 H        -0.114373         1.122454         0.329115
 H         2.538899         1.929168        -0.817399
 H         3.880083         0.025334        -2.042009
 H         4.818443        -2.617276        -0.354106
 H         4.524028        -2.020398         1.343011
 H         2.479873        -3.234254         0.031922
 H         2.278810        -1.875099         1.168678
 H         1.984451        -1.677221        -1.753553
