19
Iteration:  4058
 C        -0.015675         0.048301        -0.267572
 C         1.443707         0.035214        -0.222276
 O         2.127670         0.512409         0.976921
 C         2.646471         0.951373        -0.317502
 C         3.432007        -0.166120        -1.032749
 O         4.567070        -0.716773        -0.261908
 C         4.269451        -1.866492         0.460849
 C         2.757488        -2.193675         0.094756
 C         2.218373        -1.141914        -0.871382
 H        -0.343004        -0.427204        -1.166602
 H        -0.542880        -0.374500         0.623560
 H        -0.397972         1.081247        -0.298261
 H         2.623111         2.023848        -0.225884
 H         3.551983         0.156331        -2.068867
 H         5.000826        -2.737533         0.236430
 H         4.325448        -1.622714         1.590513
 H         2.620588        -3.175754        -0.355490
 H         2.172257        -2.291672         1.081513
 H         1.720635        -1.686089        -1.715844
