19
Iteration:  4811
 C         0.007026         0.248191        -0.415302
 C         1.386856         0.001928        -0.294146
 O         2.039034         0.471995         0.966652
 C         2.574006         0.884041        -0.250442
 C         3.379180        -0.207736        -0.951314
 O         4.546936        -0.667697        -0.352645
 C         4.378292        -1.955475         0.286837
 C         2.829032        -2.106372         0.337803
 C         2.266144        -1.257391        -0.711527
 H        -0.449815        -0.097029        -1.443886
 H        -0.668956        -0.289143         0.418222
 H        -0.296659         1.315298        -0.359662
 H         2.964355         1.948794        -0.251479
 H         3.645099         0.140882        -1.961392
 H         4.697291        -2.900535        -0.169774
 H         5.035626        -1.782311         1.187521
 H         2.434473        -3.168714         0.229298
 H         2.475526        -1.843116         1.335368
 H         1.801787        -1.806643        -1.560034
