19
Iteration:  1501charge 0 multiplicity 1
 C        -0.069009         0.489223        -0.308163
 C         1.364342        -0.014217        -0.159069
 O         2.159596         0.278401         1.023295
 C         2.510307         0.869036        -0.226841
 C         3.489166        -0.094726        -0.874322
 O         4.452048        -0.546568         0.024467
 C         4.405182        -1.994604         0.005571
 C         2.791732        -2.319749         0.016321
 C         2.290799        -1.263907        -0.889461
 H        -0.853252        -0.333086        -0.124643
 H        -0.340266         1.247949         0.470876
 H        -0.324267         0.785633        -1.415995
 H         2.391695         1.942531        -0.292041
 H         3.885316         0.276102        -1.848215
 H         5.053040        -2.478325        -0.834078
 H         4.855323        -2.427139         0.924329
 H         2.527560        -3.342723        -0.253324
 H         2.489008        -2.167086         1.086884
 H         2.000054        -1.597156        -1.957010
