19
Iteration:  1218
 C        -0.022556         0.157764        -0.364273
 C         1.452904         0.048036        -0.276059
 O         1.940545         0.201490         1.091458
 C         2.605430         1.005196         0.056512
 C         3.544936        -0.058148        -0.905132
 O         4.617837        -0.700011        -0.418895
 C         4.249263        -1.989522         0.252144
 C         2.725481        -2.194931         0.090588
 C         2.312833        -0.965851        -0.886683
 H        -0.458672        -0.518037         0.318441
 H        -0.277731         1.239134        -0.219344
 H        -0.390771        -0.148102        -1.336673
 H         2.662483         2.087967         0.183695
 H         3.809782         0.471361        -1.843861
 H         4.899834        -2.714404        -0.299883
 H         4.642472        -2.047294         1.260525
 H         2.526099        -3.256089        -0.407806
 H         2.275502        -2.201468         1.108144
 H         1.818600        -1.299926        -1.853719
