19
Iteration:  2092charge 0 multiplicity 1
 C         0.013578         0.242401        -0.480710
 C         1.476227        -0.041187        -0.106617
 O         2.040885         0.432234         1.151226
 C         2.553225         0.986882        -0.120426
 C         3.436813        -0.046819        -0.786571
 O         4.532158        -0.596788        -0.113423
 C         4.313287        -2.058480        -0.081630
 C         2.800739        -2.353577         0.017254
 C         2.261037        -1.165575        -0.788376
 H        -0.724236        -0.529034        -0.252808
 H        -0.297587         1.057321         0.238735
 H        -0.133020         0.461018        -1.541264
 H         2.396321         2.023460        -0.379810
 H         3.625113         0.280490        -1.829300
 H         4.804216        -2.461959        -1.017912
 H         4.814539        -2.320231         0.865584
 H         2.468335        -3.316789        -0.498067
 H         2.674276        -2.380555         1.093134
 H         1.806407        -1.271809        -1.822625
