19
Iteration:   835charge 0 multiplicity 1
 C         0.091344         0.516328        -0.473707
 C         1.400154        -0.094337        -0.063320
 O         2.266484         0.269645         1.164039
 C         2.545750         0.845728        -0.066452
 C         3.317279        -0.159447        -0.983579
 O         4.469620        -0.515675        -0.370924
 C         4.158593        -1.815498         0.398321
 C         2.907622        -2.411233        -0.143943
 C         2.230372        -1.279085        -0.751175
 H        -0.793382        -0.120194        -0.042757
 H        -0.173682         1.483862        -0.037798
 H         0.012523         0.578764        -1.623920
 H         2.573838         1.940091        -0.178395
 H         3.288787         0.210472        -2.022300
 H         4.960016        -2.456914         0.300284
 H         4.069806        -1.442232         1.480697
 H         3.217389        -3.027654        -0.999678
 H         2.379178        -3.143954         0.425426
 H         1.739966        -1.649507        -1.698444
