19
Iteration:  2479charge 0 multiplicity 1
 C        -0.088071         0.338369        -0.244054
 C         1.412190         0.093914        -0.253052
 O         2.102284         0.348908         0.972603
 C         2.595753         0.952076        -0.299526
 C         3.474276        -0.207025        -0.927699
 O         4.598189        -0.686444        -0.281332
 C         4.247124        -1.989392         0.356869
 C         2.810767        -2.305463         0.091747
 C         2.258232        -1.101265        -0.853832
 H        -0.423347         1.098292        -1.041285
 H        -0.534347        -0.652639        -0.399681
 H        -0.377854         0.655592         0.824415
 H         2.651545         2.080697        -0.257479
 H         3.740091         0.009741        -1.961000
 H         4.983595        -2.736318        -0.040546
 H         4.275211        -1.845423         1.471636
 H         2.701780        -3.323301        -0.232737
 H         2.402938        -2.169253         1.160790
 H         1.715473        -1.422243        -1.759923
