19
Iteration:   679
 C        -0.173481         0.508867        -0.021836
 C         1.315121        -0.007486        -0.219582
 O         2.046743         0.440358         0.932390
 C         2.549317         0.868193        -0.268118
 C         3.469413        -0.160207        -0.845132
 O         4.617622        -0.748708        -0.277746
 C         4.206945        -1.868092         0.514050
 C         3.017891        -2.524459        -0.262118
 C         2.315980        -1.179942        -0.933286
 H        -0.866999        -0.186878         0.651896
 H         0.041837         1.593930         0.297865
 H        -0.646424         0.577249        -1.049238
 H         2.658295         1.977103        -0.263841
 H         3.742001         0.299615        -1.803302
 H         5.180359        -2.452349         0.561729
 H         3.969686        -1.490346         1.578906
 H         3.489665        -2.960981        -1.124691
 H         2.290302        -3.222847         0.313907
 H         1.957798        -1.182641        -1.932078
