19
Iteration:   483charge 0 multiplicity 1
 C        -0.069320         0.170489        -0.091613
 C         1.440913         0.014255        -0.143894
 O         2.228553         0.386495         1.059258
 C         2.615255         0.964073        -0.292172
 C         3.513498        -0.095650        -0.956248
 O         4.596193        -0.692870        -0.214484
 C         3.974393        -1.838376         0.535575
 C         2.840809        -2.379278        -0.367057
 C         2.283057        -1.092892        -0.958065
 H        -0.526631        -0.830402         0.093635
 H        -0.326111         0.938938         0.686164
 H        -0.354550         0.592691        -1.028560
 H         2.393200         2.035157        -0.264016
 H         3.898501         0.095907        -1.968815
 H         4.735405        -2.533085         0.692351
 H         3.491804        -1.470641         1.501611
 H         3.154228        -3.175802        -1.035945
 H         2.152044        -2.934275         0.344995
 H         1.875204        -1.058067        -1.978784
