19
Iteration:   528
 C        -0.032216         0.409347        -0.302880
 C         1.437926        -0.058734        -0.002374
 O         2.268897         0.324163         1.096405
 C         2.553947         0.904290        -0.197647
 C         3.399281        -0.184871        -1.008527
 O         4.483713        -0.539582        -0.138285
 C         4.179230        -1.816891         0.406074
 C         2.878261        -2.475660        -0.322739
 C         2.229359        -1.181286        -0.904287
 H        -0.639174        -0.488775        -0.216536
 H        -0.296181         1.128739         0.487255
 H        -0.088811         0.914195        -1.228816
 H         2.562497         2.006221        -0.463605
 H         3.775670         0.049961        -2.028723
 H         5.020748        -2.406227         0.352135
 H         3.893078        -1.586863         1.500769
 H         3.067101        -3.181512        -1.110771
 H         2.256648        -3.093918         0.434298
 H         1.524318        -1.380393        -1.780642
