19
Iteration:  2102
 C         0.026103         0.299112        -0.459980
 C         1.413259        -0.042825        -0.075017
 O         2.064876         0.462075         1.114123
 C         2.539591         0.957605        -0.058860
 C         3.423048        -0.078737        -0.818925
 O         4.514017        -0.594121        -0.132685
 C         4.403730        -2.008333        -0.002037
 C         2.832644        -2.397995        -0.055542
 C         2.160930        -1.165813        -0.774180
 H        -0.553353        -0.596440        -0.215644
 H        -0.434202         1.274985        -0.143840
 H         0.060972         0.504298        -1.555906
 H         2.523139         1.995981        -0.298112
 H         3.737022         0.318928        -1.787455
 H         4.872261        -2.624043        -0.953638
 H         5.045631        -2.399781         0.844109
 H         2.839723        -3.395002        -0.596405
 H         2.312298        -2.522428         0.917451
 H         1.600555        -1.523076        -1.682005
