19
Iteration:  3018
 C        -0.066899         0.323835        -0.288634
 C         1.415774        -0.037475        -0.230335
 O         2.187570         0.336685         1.031850
 C         2.656935         0.968363        -0.207181
 C         3.401788        -0.168737        -0.971294
 O         4.634426        -0.878575        -0.619358
 C         4.152897        -1.696043         0.529746
 C         2.805370        -2.287008         0.177851
 C         2.234966        -1.154207        -0.821568
 H        -0.713410        -0.485205        -0.580926
 H        -0.392256         0.663927         0.653190
 H        -0.154526         1.278871        -0.798373
 H         2.674372         2.031562        -0.166006
 H         3.520607         0.245043        -1.982386
 H         4.922414        -2.438099         0.808356
 H         4.013164        -1.196437         1.480398
 H         2.831502        -3.306197        -0.344147
 H         2.109252        -2.270835         1.021786
 H         1.699123        -1.579810        -1.693437
