19
Iteration:  3767charge 0 multiplicity 1
 C         0.001188         0.017213        -0.153607
 C         1.477309         0.057551        -0.203271
 O         2.284230         0.287502         1.015367
 C         2.722833         0.849647        -0.348095
 C         3.444649        -0.129906        -1.151227
 O         4.571899        -0.690936        -0.333221
 C         3.966782        -1.682048         0.642518
 C         2.729240        -2.186199         0.032990
 C         2.227945        -1.095729        -0.949605
 H        -0.474115         0.156468        -1.138476
 H        -0.475688        -0.984038         0.199745
 H        -0.231764         0.902552         0.456785
 H         2.761972         1.934671        -0.262206
 H         3.671478         0.365483        -2.111019
 H         4.678007        -2.489691         0.823160
 H         3.805498        -0.999755         1.465066
 H         2.954543        -3.197017        -0.403313
 H         1.902327        -2.131840         0.745575
 H         1.744197        -1.403297        -1.857351
