19
Iteration:   331
 C        -0.075117         0.475982        -0.348790
 C         1.312242        -0.026958        -0.222986
 O         1.964670         0.304231         1.099399
 C         2.565138         0.932062         0.027772
 C         3.447268        -0.098113        -0.849902
 O         4.698309        -0.801893        -0.496868
 C         4.269596        -1.866253         0.420786
 C         2.908636        -2.388139        -0.134565
 C         2.262219        -1.127137        -0.831583
 H        -0.147106         1.172536         0.435803
 H        -0.307707         0.923762        -1.292223
 H        -0.714106        -0.286818        -0.137530
 H         2.673437         2.005946         0.008876
 H         3.642645         0.388182        -1.823230
 H         5.027505        -2.603105         0.409141
 H         4.259852        -1.419383         1.467854
 H         3.124431        -3.042944        -0.897255
 H         2.346373        -2.908382         0.650229
 H         2.066702        -1.425580        -1.916238
