19
Iteration:   782charge 0 multiplicity 1
 C        -0.001930         0.063370        -0.053286
 C         1.441076         0.108308        -0.426573
 O         2.045190         0.375958         0.989639
 C         2.617557         0.981731        -0.087365
 C         3.583888        -0.092294        -0.903610
 O         4.618760        -0.789217        -0.342835
 C         4.109219        -1.853928         0.459843
 C         2.691611        -2.295643        -0.106115
 C         2.310160        -1.031850        -1.001313
 H        -0.097290        -0.698963         0.795992
 H        -0.219617         1.039011         0.429342
 H        -0.771229        -0.138892        -0.859147
 H         2.764628         2.089597        -0.162561
 H         3.794240         0.406942        -1.880572
 H         4.910568        -2.565917         0.549616
 H         3.918413        -1.398110         1.531710
 H         2.748443        -3.260294        -0.708885
 H         2.126996        -2.494381         0.758288
 H         2.047455        -1.255371        -2.116360
