19
Iteration:   947
 C        -0.058484         0.150173        -0.229841
 C         1.453058         0.066118        -0.142979
 O         2.315585         0.366551         1.068423
 C         2.541005         0.995441        -0.214692
 C         3.425329        -0.069607        -0.941465
 O         4.498067        -0.661826        -0.178061
 C         4.169375        -2.049625         0.258245
 C         2.752232        -2.304957        -0.108849
 C         2.287850        -1.023482        -0.895063
 H        -0.529969        -0.533626         0.487163
 H        -0.446228         1.190360         0.076638
 H        -0.157307        -0.071915        -1.308560
 H         2.617978         2.059864        -0.421511
 H         3.817890         0.085802        -1.963323
 H         4.877865        -2.798072         0.034555
 H         4.223850        -1.927153         1.363488
 H         2.523912        -3.210341        -0.722778
 H         2.146791        -2.364998         0.744053
 H         1.930926        -1.201214        -1.956786
