19
Iteration:  3578charge 0 multiplicity 1
 C        -0.072753         0.148028        -0.542710
 C         1.426089         0.027999        -0.194814
 O         2.092657         0.560151         1.110892
 C         2.546423         0.975830        -0.199840
 C         3.412886        -0.154570        -0.876349
 O         4.576868        -0.695470        -0.354673
 C         4.261502        -2.088293         0.086936
 C         2.842981        -2.206502         0.358215
 C         2.321258        -1.120717        -0.676059
 H        -0.092891         0.190962        -1.688102
 H        -0.584618        -0.842460        -0.314238
 H        -0.718152         1.001089        -0.180047
 H         2.499949         2.024235        -0.447628
 H         3.534446         0.230384        -1.928586
 H         4.646933        -2.648432        -0.773801
 H         4.934002        -2.287748         0.935943
 H         2.340957        -3.143753         0.146198
 H         2.753336        -1.831800         1.430475
 H         1.977358        -1.830664        -1.458949
