19
Iteration:  1998charge 0 multiplicity 1
 C        -0.067115         0.240811        -0.439793
 C         1.379663         0.011557        -0.036342
 O         2.167701         0.385294         1.138398
 C         2.576001         0.884727        -0.103201
 C         3.393764        -0.125429        -0.828175
 O         4.536590        -0.594524        -0.171694
 C         4.368391        -2.021827         0.137546
 C         2.776651        -2.308516        -0.141729
 C         2.256261        -1.050642        -0.848409
 H        -0.809163        -0.406389         0.103396
 H        -0.381665         1.286202        -0.212155
 H        -0.152950         0.045392        -1.506252
 H         2.561874         2.025490        -0.213770
 H         3.721019         0.309860        -1.777838
 H         4.946301        -2.697042        -0.650600
 H         4.578512        -2.120729         1.188436
 H         2.724553        -3.034742        -0.948839
 H         2.236904        -2.584624         0.804166
 H         1.966756        -1.371156        -1.838704
