19
Iteration:  4095
 C        -0.065115         0.123451        -0.343867
 C         1.433423        -0.060186        -0.064994
 O         2.186128         0.525260         0.986377
 C         2.584924         0.957476        -0.280335
 C         3.439272        -0.129654        -1.057129
 O         4.654542        -0.766467        -0.426807
 C         4.167036        -1.777366         0.565066
 C         2.791622        -2.312996         0.043387
 C         2.159089        -1.133638        -0.761139
 H        -0.129876        -0.209160        -1.414065
 H        -0.660593        -0.615169         0.233462
 H        -0.375686         1.174712        -0.193020
 H         2.743897         2.047037        -0.403734
 H         3.765315        -0.044161        -2.104509
 H         5.071135        -2.329871         0.888790
 H         3.852962        -1.258013         1.505843
 H         2.830837        -3.226860        -0.651070
 H         2.379192        -2.540835         1.027580
 H         1.815974        -1.471669        -1.781638
