19
Iteration:  3193charge 0 multiplicity 1
 C        -0.042414         0.340524        -0.177026
 C         1.405741         0.023847        -0.239838
 O         2.164028         0.465824         0.976703
 C         2.637260         0.862234        -0.345065
 C         3.417460        -0.238725        -1.082432
 O         4.590148        -0.829836        -0.405348
 C         4.171795        -1.683251         0.615484
 C         2.882995        -2.311180         0.091448
 C         2.205457        -1.199458        -0.791650
 H        -0.555395         0.672959        -1.156679
 H        -0.529933        -0.589742         0.111351
 H        -0.257876         1.143233         0.535233
 H         2.672871         1.895202        -0.738988
 H         3.613842         0.005905        -2.142860
 H         4.881862        -2.529286         0.857388
 H         3.950602        -0.969722         1.434400
 H         3.053126        -3.130323        -0.701927
 H         2.119564        -2.789791         0.699883
 H         1.715035        -1.745274        -1.618933
