19
Iteration:  1319
 C        -0.093180         0.331939        -0.111475
 C         1.360163         0.067808        -0.071519
 O         2.101521         0.615257         0.948384
 C         2.528987         0.988586        -0.385610
 C         3.407409        -0.142332        -0.792203
 O         4.323146        -0.665907         0.208320
 C         4.456365        -2.147657         0.014297
 C         3.011694        -2.524347        -0.353612
 C         2.273143        -1.120564        -0.799812
 H        -0.710459        -0.515460         0.116221
 H        -0.292170         1.144086         0.480420
 H        -0.129830         0.542106        -1.193300
 H         2.533029         2.064875        -0.661262
 H         3.779971         0.025980        -1.807187
 H         5.181428        -2.543580        -0.778748
 H         4.799490        -2.470947         1.088290
 H         3.075045        -3.328066        -1.188213
 H         2.505360        -2.710051         0.569512
 H         1.979148        -1.161748        -1.835974
