19
Iteration:  4667charge 0 multiplicity 1
 C        -0.017266         0.119815        -0.167267
 C         1.483433         0.032175        -0.201247
 O         2.220207         0.443453         1.014410
 C         2.599406         0.923109        -0.378409
 C         3.456079        -0.214798        -1.094552
 O         4.575984        -0.823146        -0.388226
 C         4.005557        -1.617930         0.669256
 C         2.849211        -2.317952        -0.007747
 C         2.231318        -1.131550        -0.893644
 H        -0.442272        -0.392073        -1.097452
 H        -0.410987        -0.442749         0.729285
 H        -0.432713         1.196889         0.021979
 H         2.749343         1.981322        -0.457202
 H         3.830130         0.198776        -1.998261
 H         4.748291        -2.274050         1.129697
 H         3.607413        -0.940559         1.470619
 H         3.254902        -3.104661        -0.600599
 H         2.190529        -2.776487         0.775783
 H         1.742880        -1.220976        -1.843034
