19
Iteration:   223charge 0 multiplicity 1
 C        -0.086199         0.230961        -0.106000
 C         1.444164        -0.022568        -0.165601
 O         2.122032         0.509206         1.023227
 C         2.491040         1.021122        -0.206219
 C         3.503432        -0.085398        -0.818630
 O         4.565261        -0.749681        -0.165228
 C         4.110821        -1.979174         0.440404
 C         2.930737        -2.439143        -0.455677
 C         2.333152        -1.052616        -0.932712
 H        -0.297861         1.160080         0.456931
 H        -0.576529         0.307674        -1.122020
 H        -0.609801        -0.603120         0.430921
 H         2.516356         2.089426        -0.328330
 H         3.953882         0.270701        -1.746565
 H         4.863723        -2.736286         0.336358
 H         3.835893        -1.769895         1.526663
 H         3.280506        -3.057862        -1.226171
 H         2.201000        -3.049489         0.173224
 H         1.976032        -1.169469        -2.014352
