19
Iteration:   747
 C        -0.031724        -0.182245        -0.136272
 C         1.478092         0.062135        -0.226853
 O         2.363909         0.362901         1.025246
 C         2.639544         1.009283        -0.207166
 C         3.621063        -0.102353        -1.036050
 O         4.552931        -0.740912        -0.264384
 C         3.958205        -1.822612         0.489157
 C         2.558267        -2.177665        -0.110582
 C         2.270002        -0.882800        -0.972821
 H        -0.274188        -1.260845         0.258885
 H        -0.486670         0.576953         0.536476
 H        -0.520376        -0.071078        -1.183363
 H         2.664811         2.078749        -0.216040
 H         4.104937         0.120615        -2.001185
 H         4.648731        -2.612052         0.531737
 H         3.774888        -1.375926         1.576744
 H         2.641290        -3.087257        -0.706246
 H         1.836831        -2.405229         0.717687
 H         1.894033        -1.086354        -2.008627
