19
Iteration:  2582charge 0 multiplicity 1
 C        -0.001344         0.390097         0.094372
 C         1.448575        -0.094584        -0.147733
 O         2.232917         0.326521         0.926327
 C         2.564918         0.929686        -0.377574
 C         3.525913        -0.055190        -0.981168
 O         4.502756        -0.633203        -0.149507
 C         3.948538        -1.844777         0.582219
 C         2.877027        -2.439707        -0.356107
 C         2.265266        -1.153432        -1.004313
 H        -0.686008        -0.194977        -0.410818
 H        -0.226627         0.448154         1.187900
 H         0.073360         1.331336        -0.372817
 H         2.394849         1.988990        -0.562378
 H         3.976234         0.087894        -2.001345
 H         4.792079        -2.652185         0.629130
 H         3.641846        -1.603314         1.604910
 H         3.351013        -3.157998        -1.070430
 H         2.184970        -3.033183         0.188727
 H         2.044352        -1.423990        -2.062647
