19
Iteration:  4577charge 0 multiplicity 1
 C        -0.047530         0.345595        -0.407008
 C         1.411237        -0.050307        -0.186768
 O         2.147619         0.377991         0.947965
 C         2.541932         0.896415        -0.360202
 C         3.368383        -0.262993        -1.033201
 O         4.566284        -0.576471        -0.165249
 C         4.384299        -1.964675         0.198081
 C         2.823316        -2.149767         0.379377
 C         2.200460        -1.212367        -0.749212
 H        -0.242570         0.451464        -1.513863
 H        -0.578767        -0.599086        -0.104722
 H        -0.445842         1.295291         0.110612
 H         2.436762         2.005836        -0.374173
 H         3.542587        -0.014261        -2.071190
 H         4.886895        -2.445814        -0.636269
 H         4.854010        -2.325076         1.124607
 H         2.482934        -3.177186         0.442390
 H         2.479307        -1.779188         1.308108
 H         1.842340        -1.787413        -1.622667
