19
Iteration:  2668
 C        -0.029828         0.160466        -0.325943
 C         1.399112         0.087378        -0.154806
 O         2.007209         0.371864         1.055904
 C         2.628303         0.963741        -0.044539
 C         3.560346        -0.017196        -0.855900
 O         4.675315        -0.881551        -0.513977
 C         4.198209        -1.966500         0.288619
 C         2.677446        -2.202274         0.073023
 C         2.290179        -1.016057        -0.893598
 H        -0.303398        -0.526505        -1.085720
 H        -0.460872        -0.173411         0.692921
 H        -0.616339         1.053995        -0.468899
 H         2.936659         1.990042         0.168130
 H         3.846405         0.404659        -1.824966
 H         4.806689        -2.795309        -0.160726
 H         4.473176        -1.765660         1.303358
 H         2.384891        -3.221610        -0.169932
 H         2.212276        -1.960885         1.015150
 H         1.979705        -1.298516        -1.913200
