19
Iteration:   411charge 0 multiplicity 1
 C         0.002412         0.116734        -0.328726
 C         1.447472        -0.088548        -0.057875
 O         2.304036         0.239919         1.088358
 C         2.683503         0.953333        -0.122130
 C         3.454083        -0.075705        -0.980902
 O         4.532348        -0.622178        -0.302591
 C         4.064102        -1.864008         0.415316
 C         2.662443        -2.208400        -0.081641
 C         2.253137        -0.999851        -0.949721
 H        -0.865492         0.000484         0.349665
 H        -0.152289         1.081734        -0.825536
 H        -0.229634        -0.632436        -1.187351
 H         3.068223         2.014758        -0.097378
 H         3.724262         0.362303        -1.963249
 H         4.837616        -2.652614         0.002567
 H         4.123937        -1.675639         1.494684
 H         2.553387        -3.183032        -0.537069
 H         1.862377        -2.246923         0.680040
 H         1.760753        -1.287278        -1.936549
