19
Iteration:   658charge 0 multiplicity 1
 C        -0.052111         0.491254        -0.205840
 C         1.399769         0.057379        -0.207755
 O         1.924732         0.332563         1.109567
 C         2.585579         0.922172        -0.179814
 C         3.415222        -0.160804        -0.980150
 O         4.646490        -0.727190        -0.326346
 C         4.211121        -1.902549         0.462005
 C         3.020670        -2.395035        -0.207123
 C         2.274826        -1.216419        -0.889992
 H        -0.327030         0.035026         0.828291
 H        -0.019507         1.624061        -0.145171
 H        -0.855178         0.126131        -0.889525
 H         2.528730         2.017750        -0.299086
 H         3.722594         0.162128        -1.985988
 H         5.012733        -2.642581         0.502962
 H         3.967720        -1.533110         1.554068
 H         3.270317        -3.000239        -1.040619
 H         2.339021        -2.877526         0.561805
 H         1.821860        -1.486436        -1.839285
