19
Iteration:   427
 C        -0.071515        -0.009879        -0.259342
 C         1.498756         0.101373        -0.206734
 O         2.262643         0.259785         1.075666
 C         2.685027         0.942995        -0.111085
 C         3.540835        -0.039441        -0.957313
 O         4.623333        -0.741943        -0.308238
 C         4.041833        -1.837076         0.417632
 C         2.578110        -2.160644        -0.092446
 C         2.247908        -0.996273        -0.987250
 H        -0.329878        -0.425843         0.762488
 H        -0.554371         0.986329        -0.445525
 H        -0.317988        -0.727140        -1.060006
 H         2.613797         1.999500         0.016710
 H         3.973718         0.342417        -1.891396
 H         4.722650        -2.706699         0.305225
 H         3.973751        -1.556802         1.488778
 H         2.626287        -3.148133        -0.657737
 H         1.916672        -2.215570         0.785038
 H         1.821834        -1.176912        -1.949958
