19
Iteration:  1983charge 0 multiplicity 1
 C        -0.068422         0.336563        -0.373654
 C         1.429821         0.020577        -0.102197
 O         2.114568         0.327802         1.143918
 C         2.598574         0.957510        -0.122832
 C         3.431748        -0.075428        -0.933533
 O         4.504094        -0.618359        -0.154259
 C         4.285393        -1.941857         0.209148
 C         2.937994        -2.421658        -0.205465
 C         2.153026        -1.153418        -0.769580
 H        -0.678420        -0.325769         0.193655
 H        -0.335789         1.413128        -0.318570
 H        -0.155913         0.180146        -1.456049
 H         2.700357         2.025712        -0.056283
 H         3.679528         0.123162        -2.021813
 H         5.119071        -2.473207        -0.357819
 H         4.571534        -2.048436         1.288587
 H         3.059363        -3.162339        -1.118772
 H         2.291948        -2.843822         0.594783
 H         1.492549        -1.236994        -1.711298
