19
Iteration:  2414
 C        -0.045801         0.412533        -0.626199
 C         1.376902         0.012823        -0.167840
 O         2.032908         0.334605         1.139063
 C         2.584848         0.881401        -0.022857
 C         3.367379        -0.204612        -0.876040
 O         4.573473        -0.644349        -0.352751
 C         4.386494        -2.067005         0.042736
 C         2.907605        -2.174008         0.276641
 C         2.233155        -1.172367        -0.727618
 H         0.039330         1.149479        -1.398773
 H        -0.667802        -0.428932        -0.866697
 H        -0.530344         1.105987         0.106492
 H         2.792266         1.978247        -0.044657
 H         3.458595         0.124584        -1.922386
 H         4.718849        -2.699517        -0.837442
 H         4.905570        -2.099082         1.017715
 H         2.484414        -3.122763         0.128471
 H         2.490079        -1.959940         1.297996
 H         1.742397        -1.692439        -1.563192
