19
Iteration:   282charge 0 multiplicity 1
 C        -0.034179         0.077741        -0.382732
 C         1.466970        -0.017083        -0.175895
 O         2.372502         0.096020         1.104099
 C         2.670797         0.915794        -0.020844
 C         3.516212        -0.012325        -0.900827
 O         4.543118        -0.690851        -0.343730
 C         3.997233        -1.788862         0.420681
 C         2.573640        -2.129421        -0.102444
 C         2.289734        -0.966775        -0.972471
 H        -0.331351         1.167779        -0.395472
 H        -0.144858        -0.348634        -1.426722
 H        -0.688368        -0.578339         0.357058
 H         2.677541         2.029358         0.061729
 H         3.660877         0.564300        -1.831134
 H         4.765487        -2.631327         0.371154
 H         4.101550        -1.438553         1.412516
 H         2.589336        -3.185866        -0.704786
 H         1.947535        -2.185027         0.813953
 H         1.881316        -1.163646        -1.931528
