19
Iteration:  4446charge 0 multiplicity 1
 C        -0.075497         0.385777        -0.254299
 C         1.371313        -0.061152        -0.251696
 O         2.106844         0.381608         0.909009
 C         2.502138         0.914040        -0.388933
 C         3.449470        -0.194950        -0.982690
 O         4.576971        -0.577729        -0.109951
 C         4.340207        -1.942359         0.211102
 C         2.842568        -2.219577         0.248714
 C         2.267043        -1.311883        -0.824258
 H        -0.724105        -0.145376        -1.029940
 H        -0.515944        -0.007534         0.746628
 H        -0.146922         1.506358        -0.397529
 H         2.463852         2.002156        -0.441622
 H         3.745652         0.057031        -2.006407
 H         4.988158        -2.725150        -0.301179
 H         4.730541        -1.831608         1.242153
 H         2.481491        -3.275628         0.211753
 H         2.504050        -1.672073         1.080034
 H         2.028007        -1.939688        -1.709949
