19
Iteration:  3053
 C        -0.004786         0.332300        -0.208973
 C         1.458076        -0.018553        -0.057642
 O         2.201716         0.598835         0.959891
 C         2.647065         0.890379        -0.379918
 C         3.313691        -0.270440        -1.028036
 O         4.571313        -0.672450        -0.297874
 C         4.173711        -1.854891         0.526011
 C         2.907760        -2.400262        -0.121604
 C         2.113848        -1.227982        -0.687624
 H        -0.738192        -0.357434        -0.713950
 H        -0.338637         0.700333         0.719893
 H         0.029078         1.085641        -0.991908
 H         2.744825         1.966495        -0.685082
 H         3.685563        -0.227633        -2.033004
 H         4.874363        -2.687276         0.444950
 H         4.087514        -1.350201         1.435843
 H         3.193664        -3.108664        -0.958609
 H         2.197284        -3.003347         0.508895
 H         1.450334        -1.571867        -1.545207
