19
Iteration:   749
 C        -0.043294        -0.190328        -0.126954
 C         1.476311         0.064955        -0.218280
 O         2.332460         0.354332         1.020315
 C         2.643826         1.014648        -0.214235
 C         3.633444        -0.093997        -1.035699
 O         4.560831        -0.762905        -0.268133
 C         3.958028        -1.825304         0.499918
 C         2.547065        -2.159407        -0.110367
 C         2.286091        -0.876087        -0.974742
 H        -0.250341        -1.206543         0.260304
 H        -0.409780         0.594553         0.530532
 H        -0.563715        -0.113406        -1.125165
 H         2.708767         2.109184        -0.261673
 H         4.045422         0.157626        -2.044750
 H         4.654665        -2.624657         0.505718
 H         3.832377        -1.399586         1.577268
 H         2.719296        -3.092535        -0.707965
 H         1.916970        -2.348457         0.717247
 H         1.908832        -1.079770        -2.048687
