19
Iteration:   893charge 0 multiplicity 1
 C        -0.098646         0.274081        -0.308352
 C         1.396530         0.047188        -0.257037
 O         1.981469         0.202768         1.035060
 C         2.685444         0.925115         0.072690
 C         3.519381        -0.067719        -0.839339
 O         4.631906        -0.877271        -0.614594
 C         4.297267        -1.779902         0.395489
 C         2.753030        -2.186232         0.073026
 C         2.264404        -1.089440        -0.930704
 H        -0.576559        -0.706326        -0.156488
 H        -0.346736         1.015566         0.531992
 H        -0.585426         0.701026        -1.205942
 H         2.909551         1.997981         0.261982
 H         3.742119         0.478877        -1.779474
 H         5.017978        -2.648873         0.396862
 H         4.376983        -1.269824         1.387837
 H         2.644011        -3.235068        -0.337033
 H         2.162564        -2.009036         0.925350
 H         1.896484        -1.354221        -1.958029
