19
Iteration:  3934charge 0 multiplicity 1
 C        -0.075160         0.081948        -0.366507
 C         1.411436         0.077435        -0.282482
 O         1.911512         0.671118         0.965776
 C         2.558098         0.968907        -0.205570
 C         3.482767        -0.253315        -0.852627
 O         4.654404        -0.678217        -0.200304
 C         4.361511        -2.089854         0.032390
 C         2.770826        -2.196230         0.235888
 C         2.328257        -1.168358        -0.664552
 H        -0.484214        -0.012802        -1.434121
 H        -0.575472        -0.672468         0.243494
 H        -0.328175         1.065150         0.129977
 H         2.663441         2.014471        -0.638487
 H         3.720092         0.166568        -1.852892
 H         4.604648        -2.946995        -0.694650
 H         4.975769        -2.360591         0.893695
 H         2.697773        -3.286793         0.132783
 H         2.450138        -1.792982         1.185727
 H         2.028109        -1.425639        -1.689991
