19
Iteration:  4849
 C        -0.111594         0.360769        -0.413002
 C         1.324601        -0.048640        -0.269208
 O         1.938344         0.400911         0.963888
 C         2.525743         0.886046        -0.331335
 C         3.444476        -0.170288        -0.910717
 O         4.663083        -0.699081        -0.331957
 C         4.430844        -2.039646         0.180245
 C         2.858100        -2.071828         0.465700
 C         2.303789        -1.230878        -0.716854
 H        -0.441710        -0.131502        -1.269655
 H        -0.748864         0.247900         0.478446
 H         0.023248         1.439353        -0.641821
 H         2.631228         1.954783        -0.336681
 H         3.516904         0.106943        -1.981623
 H         4.874924        -2.823979        -0.525850
 H         5.064648        -2.011191         1.075746
 H         2.413619        -3.044682         0.332610
 H         2.569405        -1.544806         1.418591
 H         2.021150        -1.982418        -1.444894
