19
Iteration:  4876charge 0 multiplicity 1
 C        -0.027331         0.225497        -0.512135
 C         1.415358         0.036151        -0.174711
 O         2.003320         0.599792         0.986975
 C         2.606877         0.923586        -0.333558
 C         3.363241        -0.213611        -0.894786
 O         4.568947        -0.626043        -0.245841
 C         4.355735        -2.014617         0.113692
 C         2.894393        -2.246602         0.380345
 C         2.215530        -1.271209        -0.643190
 H        -0.089491        -0.248660        -1.569247
 H        -0.709989        -0.167791         0.271285
 H        -0.302956         1.264926        -0.509762
 H         2.733035         2.033533        -0.407245
 H         3.416841        -0.091876        -2.015241
 H         4.732776        -2.671759        -0.669531
 H         5.104081        -2.216022         0.948648
 H         2.632384        -3.343924         0.294269
 H         2.528880        -1.858228         1.327261
 H         1.771740        -1.870669        -1.474716
