19
Iteration:  3061charge 0 multiplicity 1
 C         0.021662         0.321632        -0.172939
 C         1.451799         0.013745        -0.098293
 O         2.245448         0.645558         0.920897
 C         2.536730         0.932664        -0.407939
 C         3.384944        -0.273464        -1.037900
 O         4.518892        -0.674110        -0.219184
 C         4.194913        -1.871712         0.499507
 C         2.836977        -2.477425        -0.182008
 C         2.169212        -1.263659        -0.643124
 H        -0.623462        -0.464607        -0.546190
 H        -0.325514         0.758107         0.728944
 H        -0.083868         1.194696        -0.834013
 H         2.784922         1.933287        -0.663133
 H         3.435480        -0.190856        -2.133034
 H         5.095904        -2.556762         0.565519
 H         3.916320        -1.576304         1.558350
 H         3.203719        -3.006343        -1.101052
 H         2.383302        -3.053607         0.596639
 H         1.693344        -1.487391        -1.608521
