19
Iteration:  2900
 C        -0.070807         0.364305        -0.162952
 C         1.402455         0.055823        -0.153310
 O         2.257006         0.539538         0.918406
 C         2.553129         0.960427        -0.344451
 C         3.374114        -0.212269        -1.020700
 O         4.573313        -0.701695        -0.249628
 C         4.163481        -1.956000         0.539973
 C         2.918567        -2.449349        -0.146014
 C         2.208708        -1.179508        -0.729422
 H        -0.475702         0.064165         0.891556
 H        -0.340221         1.341001        -0.515266
 H        -0.553249        -0.342299        -0.918171
 H         2.509020         1.982938        -0.623285
 H         3.649614        -0.049656        -2.075071
 H         5.140778        -2.476097         0.483955
 H         4.038808        -1.689354         1.574657
 H         3.113409        -3.053195        -1.091079
 H         2.374750        -3.008307         0.624830
 H         1.530829        -1.501065        -1.573489
