19
Iteration:  1450
 C        -0.049849         0.312150        -0.534137
 C         1.357431        -0.032456        -0.078142
 O         1.953529         0.435756         1.169006
 C         2.515504         0.916088         0.004687
 C         3.464164        -0.059143        -0.796224
 O         4.682022        -0.658105        -0.327722
 C         4.324950        -2.068669         0.003778
 C         2.856469        -2.338282         0.031083
 C         2.298642        -1.107098        -0.772100
 H        -0.828905        -0.446102        -0.483227
 H        -0.309505         1.152274         0.059914
 H         0.040390         0.724128        -1.534385
 H         2.429247         1.982430        -0.104849
 H         3.585100         0.460169        -1.763252
 H         4.787429        -2.673154        -0.746640
 H         4.786381        -2.406679         0.910558
 H         2.515322        -3.408359        -0.141462
 H         2.551399        -2.322287         1.074209
 H         1.929088        -1.305503        -1.750769
