19
Iteration:   925
 C        -0.031000         0.077773        -0.309895
 C         1.499915         0.019608        -0.166156
 O         2.188503         0.215724         1.072006
 C         2.683818         0.922960        -0.106811
 C         3.529122        -0.028553        -0.957085
 O         4.635053        -0.673955        -0.384876
 C         4.118294        -1.871527         0.328636
 C         2.560105        -2.127865         0.092522
 C         2.211196        -1.042064        -0.956090
 H        -0.461691        -0.744139         0.278798
 H        -0.404122         0.987847         0.269419
 H        -0.261309         0.092475        -1.392638
 H         2.900299         1.982941         0.091083
 H         3.916687         0.388099        -1.901822
 H         4.614022        -2.693019        -0.160775
 H         4.488546        -1.838630         1.379997
 H         2.526119        -3.138275        -0.400396
 H         1.901953        -2.140445         0.893131
 H         1.615058        -1.301083        -1.878302
