19
Iteration:    65
 C         0.047281         0.438859        -0.501259
 C         1.406140        -0.019730        -0.076609
 O         2.107578         0.294456         1.224419
 C         2.582369         0.898667        -0.032336
 C         3.348554        -0.129357        -0.890203
 O         4.527657        -0.633013        -0.402132
 C         4.249365        -1.823252         0.350044
 C         2.903236        -2.447141        -0.178904
 C         2.208455        -1.187782        -0.798989
 H        -0.257416         1.301842         0.012564
 H         0.066822         0.618448        -1.551654
 H        -0.695911        -0.298682        -0.318313
 H         2.653674         1.974678         0.069506
 H         3.459426         0.274834        -1.919568
 H         5.121628        -2.520799         0.112849
 H         4.186623        -1.598072         1.404495
 H         3.096955        -3.120229        -0.954757
 H         2.363286        -2.827972         0.563619
 H         1.756973        -1.485554        -1.749609
