19
Iteration:  3163
 C         0.052616         0.038056        -0.053435
 C         1.508528         0.020227        -0.183869
 O         2.318294         0.481134         0.884750
 C         2.657799         0.956312        -0.450321
 C         3.499177        -0.111304        -1.094739
 O         4.606287        -0.773333        -0.330985
 C         3.958903        -1.726755         0.647503
 C         2.627085        -2.265414         0.072212
 C         2.191712        -1.139452        -0.919902
 H        -0.348502        -0.507968        -0.904541
 H        -0.274183        -0.644784         0.692282
 H        -0.416566         0.955218         0.196954
 H         2.802647         2.043081        -0.628886
 H         3.866721         0.168299        -2.068329
 H         4.580114        -2.573785         0.972352
 H         3.853589        -1.092523         1.537971
 H         2.727109        -3.188278        -0.545930
 H         1.736628        -2.498042         0.700223
 H         1.605617        -1.571978        -1.756847
