19
Iteration:  3775
 C        -0.103473         0.062205        -0.169522
 C         1.488498         0.045483        -0.189828
 O         2.309216         0.295780         1.008193
 C         2.658069         0.878513        -0.351655
 C         3.502009        -0.165777        -1.105345
 O         4.567047        -0.674952        -0.353053
 C         4.051985        -1.667457         0.619482
 C         2.704771        -2.212917         0.044779
 C         2.272682        -1.088850        -0.962997
 H        -0.372316         0.210683        -1.202896
 H        -0.456319        -0.928135         0.191898
 H        -0.639258         0.759206         0.481473
 H         2.764849         1.984974        -0.151337
 H         3.847456         0.077213        -2.158443
 H         4.777442        -2.473293         0.752676
 H         3.873588        -1.314143         1.647095
 H         2.513642        -3.149696        -0.411028
 H         1.935377        -2.206068         0.867798
 H         1.717637        -1.438668        -1.851830
