19
Iteration:  4601
 C        -0.082852         0.288925        -0.412472
 C         1.367718        -0.059911        -0.155534
 O         2.188419         0.455235         0.976054
 C         2.572632         0.864036        -0.320488
 C         3.408624        -0.171582        -1.008717
 O         4.536228        -0.629574        -0.303936
 C         4.338355        -1.873789         0.342972
 C         2.811093        -2.334430         0.289980
 C         2.235987        -1.147730        -0.762518
 H        -0.311250         0.106016        -1.514387
 H        -0.788961        -0.275224         0.231744
 H        -0.122509         1.435533        -0.193742
 H         2.626884         1.954006        -0.462631
 H         3.598062         0.089608        -2.030272
 H         5.054337        -2.480055        -0.201516
 H         4.673758        -1.894906         1.419793
 H         2.568274        -3.308541        -0.075946
 H         2.328523        -2.317869         1.297895
 H         1.823901        -1.633671        -1.627350
