19
Iteration:  4125
 C        -0.043268         0.358978        -0.199194
 C         1.407672        -0.055589        -0.314554
 O         2.063205         0.379417         0.969688
 C         2.622657         0.907303        -0.276011
 C         3.411524        -0.209798        -1.062470
 O         4.564974        -0.749592        -0.458078
 C         4.173114        -1.636099         0.666193
 C         2.903030        -2.320478         0.096853
 C         2.288686        -1.263907        -0.833750
 H        -0.571031         0.575812        -1.109351
 H        -0.562421        -0.473483         0.361384
 H        -0.124524         1.153963         0.537275
 H         2.808193         1.983601        -0.442200
 H         3.604298        -0.132522        -2.141998
 H         5.054080        -2.242477         0.989960
 H         3.857581        -1.092540         1.659732
 H         3.160823        -3.124445        -0.646307
 H         2.273834        -2.858591         0.877066
 H         2.148532        -1.566501        -1.931587
