19
Iteration:  4871charge 0 multiplicity 1
 C        -0.021970         0.279522        -0.536807
 C         1.393841         0.014812        -0.227502
 O         1.999688         0.581520         0.993716
 C         2.582771         0.921070        -0.254993
 C         3.393420        -0.261164        -0.922819
 O         4.562864        -0.626372        -0.265569
 C         4.341847        -2.011984         0.149065
 C         2.928338        -2.244655         0.367829
 C         2.231975        -1.272364        -0.639105
 H        -0.352942        -0.291044        -1.367010
 H        -0.479157        -0.224806         0.343999
 H        -0.316688         1.355782        -0.506883
 H         2.586342         1.984214        -0.486132
 H         3.419872        -0.066124        -2.002571
 H         4.632634        -2.730469        -0.685853
 H         5.072074        -2.081264         0.929417
 H         2.704715        -3.284335         0.419598
 H         2.614203        -1.661176         1.279022
 H         1.775654        -1.709642        -1.521850
