19
Iteration:  4862charge 0 multiplicity 1
 C        -0.050714         0.322380        -0.497902
 C         1.409466        -0.014973        -0.297486
 O         1.977514         0.516609         1.008658
 C         2.535828         0.890114        -0.210732
 C         3.406619        -0.271122        -0.946806
 O         4.564084        -0.664823        -0.309495
 C         4.431523        -1.998629         0.149650
 C         2.876304        -2.152153         0.424146
 C         2.263495        -1.250911        -0.669002
 H        -0.665549        -0.150875        -1.237526
 H        -0.507321        -0.012515         0.331888
 H        -0.248227         1.396667        -0.607740
 H         2.447416         1.926122        -0.647760
 H         3.695641         0.026936        -1.996523
 H         4.783470        -2.693508        -0.657681
 H         4.938944        -2.187689         1.134418
 H         2.554733        -3.138681         0.493257
 H         2.794870        -1.771617         1.477731
 H         1.929621        -1.648272        -1.621289
