19
Iteration:  1031charge 0 multiplicity 1
 C         0.057188         0.137257        -0.061658
 C         1.476626         0.044157        -0.164274
 O         2.311757         0.661291         0.999680
 C         2.559305         0.920837        -0.377150
 C         3.482736        -0.154570        -0.875694
 O         4.334408        -0.588288         0.087249
 C         4.184125        -1.988187         0.302297
 C         2.780585        -2.471743        -0.499663
 C         2.219141        -1.159229        -0.823738
 H        -0.138359        -0.444444         0.843380
 H        -0.326223         1.159810         0.073661
 H        -0.596020        -0.313279        -0.819501
 H         2.608375         1.983275        -0.687200
 H         4.039140        -0.003705        -1.821546
 H         5.082649        -2.535963        -0.221740
 H         4.163871        -2.151226         1.421533
 H         2.860783        -3.180951        -1.366286
 H         2.039062        -2.883885         0.299343
 H         1.674806        -1.056805        -1.824955
