19
Iteration:  4607
 C        -0.053228         0.306309        -0.383305
 C         1.439009        -0.052649        -0.154916
 O         2.126701         0.480950         0.967048
 C         2.566143         0.918856        -0.288831
 C         3.393121        -0.217053        -1.058530
 O         4.546293        -0.629477        -0.330867
 C         4.333094        -1.906146         0.390017
 C         2.791759        -2.344319         0.256147
 C         2.266326        -1.180457        -0.729274
 H        -0.441194         0.055061        -1.342945
 H        -0.701707        -0.287646         0.264982
 H        -0.304304         1.317292        -0.345307
 H         2.583066         2.012133        -0.369080
 H         3.590497         0.247095        -2.104485
 H         5.112826        -2.577211        -0.083281
 H         4.620247        -1.716789         1.408827
 H         2.747741        -3.408433        -0.180509
 H         2.238122        -2.342671         1.177847
 H         1.816733        -1.545342        -1.704161
