19
Iteration:  1145
 C         0.061344         0.577437        -0.548608
 C         1.325726        -0.088821        -0.067891
 O         2.040827         0.168807         1.212998
 C         2.643965         0.745317         0.042985
 C         3.337227        -0.133694        -0.953131
 O         4.541113        -0.675641        -0.601828
 C         4.260825        -1.668186         0.440874
 C         2.937725        -2.395566        -0.030714
 C         2.222103        -1.198800        -0.795535
 H        -0.853930        -0.086091        -0.611875
 H        -0.019645         1.337924         0.253591
 H         0.203816         1.161403        -1.495048
 H         2.590597         1.853044         0.048923
 H         3.437328         0.353451        -1.927069
 H         5.166088        -2.270179         0.570857
 H         4.005167        -1.000209         1.345594
 H         3.275425        -3.150395        -0.694616
 H         2.420283        -2.919643         0.722007
 H         1.854378        -1.569770        -1.768775
