19
Iteration:  2948
 C         0.027462         0.334766        -0.388644
 C         1.445818        -0.027504        -0.126555
 O         2.148274         0.452884         1.118409
 C         2.542500         0.979377        -0.237319
 C         3.373761        -0.164659        -0.982472
 O         4.557959        -0.808086        -0.573090
 C         4.225165        -1.846025         0.469725
 C         2.825526        -2.331140         0.131040
 C         2.217837        -1.208321        -0.767191
 H        -0.659423        -0.494657        -0.276530
 H        -0.116192         1.054547         0.467974
 H        -0.140769         0.978277        -1.239255
 H         2.586401         2.087655        -0.488987
 H         3.603492         0.000889        -2.070859
 H         5.022787        -2.591649         0.578146
 H         4.346841        -1.231110         1.423312
 H         2.840622        -3.254590        -0.415499
 H         2.343731        -2.510278         1.123854
 H         1.838211        -1.530623        -1.739651
