19
Iteration:  4959charge 0 multiplicity 1
 C        -0.124719         0.159627        -0.121674
 C         1.379710         0.012943        -0.316294
 O         2.192477         0.526784         0.760198
 C         2.528195         0.959519        -0.525845
 C         3.527726        -0.171855        -0.903292
 O         4.566414        -0.612047         0.024885
 C         4.331919        -2.006027         0.231756
 C         2.714122        -2.272299         0.295171
 C         2.268721        -1.156728        -0.848474
 H        -0.574239         0.340954        -1.098871
 H        -0.550432        -0.875897         0.029888
 H        -0.548124         0.959682         0.544702
 H         2.728281         2.084918        -0.662574
 H         3.997854        -0.159896        -1.865174
 H         4.691194        -2.559619        -0.629613
 H         4.901573        -2.185252         1.118797
 H         2.433825        -3.257809         0.057522
 H         2.189540        -1.951351         1.239398
 H         1.946402        -1.654085        -1.754706
