19
Iteration:  2958
 C        -0.024428         0.338001        -0.343240
 C         1.459258         0.003622        -0.185086
 O         2.163655         0.363389         1.052709
 C         2.585191         0.913841        -0.211153
 C         3.404589        -0.184831        -0.937566
 O         4.594902        -0.866758        -0.599171
 C         4.241131        -1.710712         0.442732
 C         2.743559        -2.266325         0.190534
 C         2.268832        -1.168733        -0.739617
 H        -0.701602        -0.550145        -0.519182
 H        -0.482420         0.891137         0.525253
 H        -0.085641         0.898736        -1.293005
 H         2.632142         2.045843        -0.286394
 H         3.375296         0.268317        -1.970261
 H         5.022388        -2.459262         0.235822
 H         4.207438        -1.290786         1.516859
 H         2.719516        -3.235328        -0.268728
 H         2.127077        -2.388235         1.125127
 H         1.781894        -1.564516        -1.652457
