19
Iteration:  3329charge 0 multiplicity 1
 C        -0.092988         0.178814        -0.238015
 C         1.380621         0.043404        -0.179723
 O         2.203126         0.476041         0.985321
 C         2.620158         0.983063        -0.254233
 C         3.504644        -0.198590        -1.005620
 O         4.605043        -0.735328        -0.344432
 C         4.228283        -1.902923         0.432444
 C         2.715310        -2.248458         0.073988
 C         2.239828        -1.126842        -0.844656
 H        -0.521968        -0.484484        -0.961900
 H        -0.622440        -0.285992         0.643070
 H        -0.485626         1.198572        -0.404664
 H         2.689478         2.093043        -0.298948
 H         3.824609        -0.010783        -2.040553
 H         4.928673        -2.687639         0.084661
 H         4.523672        -1.527505         1.473127
 H         2.526505        -3.218772        -0.482164
 H         2.025211        -2.370056         0.976154
 H         1.900890        -1.624772        -1.780085
