19
Iteration:  3910
 C        -0.134934         0.168296        -0.379418
 C         1.364464         0.083934        -0.249672
 O         1.950811         0.447844         0.900713
 C         2.530168         1.055047        -0.316044
 C         3.509707        -0.060911        -0.897938
 O         4.634487        -0.709481        -0.126393
 C         4.317001        -2.186318        -0.005822
 C         2.905125        -2.143189         0.419412
 C         2.331655        -1.162780        -0.704989
 H        -0.434133        -0.305810        -1.343705
 H        -0.692462        -0.346738         0.436201
 H        -0.448501         1.232031        -0.251922
 H         2.553307         2.079018        -0.079445
 H         3.933113         0.190820        -1.918744
 H         4.394462        -2.896949        -0.944754
 H         5.085358        -2.598882         0.632173
 H         2.527474        -3.184253         0.211717
 H         2.705838        -1.801400         1.409500
 H         1.993370        -1.554112        -1.646405
