19
Iteration:  2241charge 0 multiplicity 1
 C        -0.040418         0.115926        -0.146961
 C         1.464292        -0.026359        -0.147412
 O         2.131574         0.456161         1.077762
 C         2.637244         0.920867        -0.166629
 C         3.511354        -0.030489        -0.921769
 O         4.601033        -0.772519        -0.357618
 C         4.001315        -1.848357         0.478188
 C         2.781615        -2.384840        -0.306657
 C         2.344356        -0.999609        -0.867527
 H        -0.361053        -0.925848        -0.317589
 H        -0.429442         0.576595         0.809525
 H        -0.521272         0.807211        -0.902580
 H         2.619167         1.936824        -0.456835
 H         3.823266         0.325087        -1.929052
 H         4.757408        -2.566565         0.680937
 H         3.815637        -1.364007         1.485188
 H         3.101119        -3.025071        -1.171682
 H         1.967599        -2.901236         0.383598
 H         1.977862        -1.097978        -1.880728
