19
Iteration:   830charge 0 multiplicity 1
 C         0.029078         0.503176        -0.473454
 C         1.422699        -0.110900        -0.056491
 O         2.281983         0.245536         1.180469
 C         2.530429         0.870637        -0.119350
 C         3.312799        -0.160784        -0.993464
 O         4.495106        -0.547432        -0.338980
 C         4.173475        -1.795026         0.417587
 C         2.895066        -2.391635        -0.197758
 C         2.199565        -1.223587        -0.747256
 H        -0.742444        -0.020765         0.006324
 H        -0.126649         1.507648        -0.039581
 H         0.022441         0.441515        -1.525710
 H         2.485148         1.952468        -0.221348
 H         3.530766         0.138657        -2.052567
 H         5.087548        -2.535031         0.340956
 H         4.117706        -1.489399         1.416222
 H         3.280095        -3.118856        -0.939698
 H         2.258583        -3.067786         0.516362
 H         1.759305        -1.614525        -1.636986
