19
Iteration:  3428charge 0 multiplicity 1
 C         0.024742         0.048524        -0.029634
 C         1.496452         0.014883        -0.150728
 O         2.268578         0.706694         0.948484
 C         2.650950         0.916798        -0.459400
 C         3.460589        -0.228176        -0.991038
 O         4.564046        -0.774232        -0.302636
 C         3.937658        -1.741222         0.557602
 C         2.780705        -2.321819        -0.121023
 C         2.261801        -1.220158        -0.847708
 H        -0.395890         0.216363        -1.003833
 H        -0.292566        -0.998339         0.190708
 H        -0.491567         0.754059         0.624139
 H         2.689486         1.958962        -0.730941
 H         3.686794        -0.019380        -2.028946
 H         4.741638        -2.443528         0.830448
 H         3.578298        -1.162309         1.480178
 H         2.940396        -3.194209        -0.796423
 H         2.052275        -2.726853         0.637106
 H         1.688878        -1.252994        -1.761297
