19
Iteration:  2350charge 0 multiplicity 1
 C        -0.101351         0.099795        -0.347238
 C         1.386943         0.153082        -0.211126
 O         1.964176         0.460730         1.028983
 C         2.613416         0.988412        -0.150976
 C         3.567487        -0.109278        -0.756138
 O         4.676722        -0.710683        -0.092534
 C         4.257094        -2.198742        -0.137732
 C         2.763840        -2.181463         0.166238
 C         2.281722        -1.030832        -0.840751
 H        -0.330624        -0.672386        -1.083277
 H        -0.497146        -0.426749         0.577739
 H        -0.653695         1.025238        -0.587558
 H         2.711899         2.087318        -0.347307
 H         4.000290         0.337950        -1.692639
 H         4.359896        -2.491687        -1.231348
 H         4.926209        -2.544757         0.686743
 H         2.148957        -3.038829        -0.123133
 H         2.661286        -1.887622         1.294930
 H         2.052062        -1.365744        -1.856094
