19
Iteration:  1195
 C        -0.089160         0.459746        -0.496295
 C         1.311673        -0.001436        -0.135886
 O         1.944635         0.263039         1.216282
 C         2.565917         0.842865         0.008156
 C         3.400032        -0.071997        -0.787271
 O         4.677130        -0.748761        -0.500072
 C         4.373942        -1.875424         0.242935
 C         2.883728        -2.269323        -0.041469
 C         2.292202        -1.149902        -0.813028
 H        -0.790477        -0.220146        -0.066079
 H        -0.311603         1.554780        -0.390721
 H        -0.127759         0.199938        -1.550063
 H         2.726277         1.900070        -0.022648
 H         3.519863         0.350587        -1.805391
 H         5.140193        -2.671717        -0.026082
 H         4.528121        -1.790550         1.300879
 H         2.828690        -3.349314        -0.486421
 H         2.465487        -2.331604         1.025183
 H         2.071259        -1.421594        -1.881639
