19
Iteration:  2243charge 0 multiplicity 1
 C        -0.045474         0.125053        -0.141770
 C         1.453784        -0.023411        -0.147100
 O         2.124855         0.467706         1.065189
 C         2.632091         0.911069        -0.165545
 C         3.519221        -0.032757        -0.926796
 O         4.590219        -0.777626        -0.339136
 C         4.018319        -1.867167         0.463993
 C         2.808399        -2.377131        -0.289885
 C         2.332610        -1.003547        -0.870453
 H        -0.404428        -0.900635        -0.352974
 H        -0.422933         0.608286         0.830120
 H        -0.512769         0.820609        -0.867709
 H         2.621373         1.972856        -0.465760
 H         3.824416         0.319084        -1.918208
 H         4.806554        -2.523048         0.674787
 H         3.842481        -1.456738         1.468319
 H         3.070810        -3.018558        -1.191928
 H         2.030950        -2.928576         0.321189
 H         1.943462        -1.051354        -1.905268
