19
Iteration:   406charge 0 multiplicity 1
 C         0.000087         0.177729        -0.368941
 C         1.458534        -0.070754        -0.030905
 O         2.296293         0.229187         1.083903
 C         2.659408         0.936936        -0.144350
 C         3.387490        -0.074832        -0.978355
 O         4.504288        -0.609964        -0.296346
 C         4.096709        -1.884715         0.376503
 C         2.690523        -2.232984        -0.064794
 C         2.279342        -1.033365        -0.920081
 H        -0.757869         0.104801         0.417096
 H         0.005433         1.139735        -0.895133
 H        -0.140145        -0.549536        -1.114850
 H         2.928925         1.965200         0.023862
 H         3.763087         0.308450        -1.938280
 H         4.849610        -2.548317         0.093813
 H         4.111847        -1.701729         1.461816
 H         2.702725        -3.192733        -0.644738
 H         1.911736        -2.285843         0.712907
 H         1.817247        -1.297005        -1.864312
