19
Iteration:  3944
 C        -0.027149         0.074097        -0.386733
 C         1.423220         0.017941        -0.173259
 O         1.938299         0.729300         1.040795
 C         2.610744         0.973547        -0.271764
 C         3.470191        -0.180927        -0.946554
 O         4.598919        -0.683559        -0.198891
 C         4.324162        -2.070904         0.147746
 C         2.846251        -2.238746         0.249262
 C         2.263056        -1.206474        -0.800601
 H        -0.227508         0.157223        -1.495077
 H        -0.589687        -0.764578         0.061413
 H        -0.436086         0.988086         0.099584
 H         2.549081         2.047895        -0.355774
 H         3.765376        -0.048595        -2.017410
 H         4.703564        -2.681942        -0.763952
 H         4.919903        -2.312633         1.021300
 H         2.536100        -3.265357        -0.058067
 H         2.398507        -2.095305         1.206641
 H         1.721614        -1.496017        -1.701646
