19
Iteration:  4729
 C        -0.077063         0.156853        -0.068521
 C         1.432471        -0.017536        -0.285097
 O         2.184825         0.536883         0.807106
 C         2.586525         0.929451        -0.492416
 C         3.431822        -0.215184        -0.998659
 O         4.572161        -0.594808        -0.131684
 C         4.189229        -1.894293         0.533389
 C         2.795015        -2.321668         0.097041
 C         2.253426        -1.168819        -0.873952
 H        -0.509197         0.647424        -0.897373
 H        -0.599201        -0.695559         0.211439
 H        -0.042814         0.934325         0.689874
 H         2.699165         1.973425        -0.766937
 H         3.850532        -0.221660        -2.050725
 H         4.724414        -2.796023         0.252282
 H         4.286325        -1.596887         1.574553
 H         2.988978        -3.184447        -0.544739
 H         2.149736        -2.574454         0.924456
 H         1.867985        -1.506649        -1.869566
