19
Iteration:  4412
 C        -0.132199         0.269313        -0.276817
 C         1.397139         0.002509        -0.267019
 O         2.151857         0.457135         0.931665
 C         2.572097         0.923355        -0.334809
 C         3.417441        -0.209265        -1.037628
 O         4.558834        -0.669495        -0.240400
 C         4.360953        -1.884077         0.381292
 C         2.816131        -2.226524         0.191936
 C         2.267529        -1.227862        -0.795158
 H        -0.709655        -0.032220        -1.227562
 H        -0.618686        -0.306184         0.623381
 H        -0.320964         1.359945        -0.111935
 H         2.562924         2.006514        -0.285858
 H         3.820813         0.198036        -1.946971
 H         4.986390        -2.775312         0.081701
 H         4.550546        -1.758699         1.461424
 H         2.791659        -3.281661        -0.162681
 H         2.246640        -2.296848         1.078459
 H         1.796466        -1.811440        -1.642514
