19
Iteration:  2157charge 0 multiplicity 1
 C        -0.046084         0.365483        -0.185621
 C         1.403824        -0.082289        -0.214398
 O         1.991878         0.296930         1.100983
 C         2.528927         0.939618        -0.184386
 C         3.445916        -0.102381        -0.863753
 O         4.573544        -0.626685        -0.254974
 C         4.283500        -1.978288         0.322729
 C         2.851036        -2.274566        -0.094510
 C         2.351964        -1.089342        -1.017333
 H        -0.614782        -0.072174         0.644916
 H        -0.049049         1.501278        -0.121948
 H        -0.587187        -0.029507        -1.039914
 H         2.687342         2.020813        -0.210310
 H         3.742075         0.229861        -1.856496
 H         4.988416        -2.800424        -0.162834
 H         4.479610        -1.953114         1.433865
 H         3.028706        -3.205015        -0.683705
 H         2.168929        -2.664950         0.647984
 H         2.138134        -1.419609        -2.059912
