19
Iteration:  4160
 C        -0.042582         0.368048        -0.196024
 C         1.408344        -0.098455        -0.214928
 O         2.232802         0.205998         0.959025
 C         2.532582         0.795082        -0.351809
 C         3.458500        -0.276156        -1.122790
 O         4.566497        -0.596717        -0.376697
 C         4.179990        -1.644525         0.659701
 C         2.790840        -2.165521         0.155803
 C         2.282691        -1.238084        -0.892742
 H        -0.381757         0.701570        -1.230820
 H        -0.786667        -0.392931         0.076792
 H        -0.120366         1.301812         0.384920
 H         2.652590         1.897408        -0.338273
 H         3.668049         0.029234        -2.158122
 H         4.909502        -2.517948         0.711841
 H         3.987755        -1.001035         1.575971
 H         3.019318        -3.136727        -0.482865
 H         1.998013        -2.372487         0.885036
 H         1.810457        -1.483075        -1.918103
