19
Iteration:   219charge 0 multiplicity 1
 C        -0.084514         0.219827        -0.129385
 C         1.442690        -0.017560        -0.114929
 O         2.153689         0.488094         1.044198
 C         2.480548         1.075187        -0.215292
 C         3.503257        -0.095181        -0.874370
 O         4.545962        -0.738525        -0.151115
 C         4.099554        -1.985532         0.453676
 C         2.938094        -2.446459        -0.439550
 C         2.318267        -1.069299        -0.933770
 H        -0.322675         1.144063         0.394001
 H        -0.409501         0.366793        -1.112797
 H        -0.677090        -0.520018         0.311500
 H         2.404230         2.187781        -0.367354
 H         4.019998         0.209646        -1.808630
 H         4.905144        -2.742637         0.348492
 H         3.824563        -1.854768         1.496689
 H         3.320952        -3.001244        -1.333605
 H         2.303261        -3.098882         0.042469
 H         1.926726        -1.183883        -1.931538
