19
Iteration:  4668
 C        -0.007270         0.121860        -0.168134
 C         1.477937         0.026736        -0.201527
 O         2.224358         0.440779         1.009161
 C         2.601508         0.915949        -0.378862
 C         3.456607        -0.210922        -1.091558
 O         4.564836        -0.817147        -0.382458
 C         4.011874        -1.609213         0.666524
 C         2.842776        -2.314128        -0.010857
 C         2.229247        -1.134355        -0.892830
 H        -0.427861        -0.387437        -1.093120
 H        -0.365443        -0.462268         0.736478
 H        -0.399462         1.181019         0.025158
 H         2.746261         1.971795        -0.455558
 H         3.848320         0.182854        -1.991410
 H         4.729280        -2.293972         1.157002
 H         3.621672        -0.927858         1.458907
 H         3.238191        -3.123553        -0.612477
 H         2.177628        -2.797060         0.768179
 H         1.721149        -1.207298        -1.827320
