19
Iteration:  1393charge 0 multiplicity 1
 C        -0.074549         0.152506        -0.403802
 C         1.407480         0.049220        -0.267795
 O         2.031116         0.209378         1.059739
 C         2.649083         0.851632         0.039172
 C         3.493296        -0.056205        -0.826750
 O         4.617968        -0.665324        -0.219588
 C         4.217845        -2.017974         0.000285
 C         2.709308        -2.080491         0.191879
 C         2.362521        -0.958400        -0.914124
 H        -0.437588        -0.349555         0.490959
 H        -0.475038         1.168925        -0.364868
 H        -0.236865        -0.448875        -1.351076
 H         2.899558         1.922625         0.141193
 H         3.742556         0.476247        -1.777933
 H         4.312655        -2.482376        -0.976618
 H         4.731386        -2.443595         0.792503
 H         2.224998        -3.051718        -0.197982
 H         2.463515        -1.780449         1.200829
 H         2.073672        -1.332045        -1.941328
