19
Iteration:  4989
 C         0.107034         0.193144        -0.233494
 C         1.446154         0.010864        -0.234025
 O         2.182244         0.463056         0.949400
 C         2.545107         0.907709        -0.458964
 C         3.413544        -0.195799        -1.020578
 O         4.448332        -0.588763        -0.128685
 C         4.221299        -1.878459         0.349630
 C         2.775255        -2.232386         0.231378
 C         2.272595        -1.210817        -0.902063
 H        -0.145934        -0.083433        -1.248629
 H        -0.416726        -0.697789         0.402041
 H        -0.397335         1.127434         0.167733
 H         2.710218         1.960032        -0.507842
 H         3.817970        -0.167859        -2.045127
 H         4.871762        -2.661341        -0.118810
 H         4.514077        -1.879851         1.385831
 H         2.624666        -3.237069        -0.216224
 H         2.183392        -2.100583         1.182846
 H         1.639850        -1.699015        -1.641130
