19
Iteration:   872
 C        -0.085088         0.461328        -0.380710
 C         1.383560         0.006380        -0.120211
 O         1.957609         0.259012         1.184687
 C         2.549467         0.833655        -0.034545
 C         3.460139        -0.136598        -0.953185
 O         4.709230        -0.822295        -0.622006
 C         4.241046        -1.788616         0.427479
 C         2.892995        -2.270668        -0.011880
 C         2.304449        -1.122741        -0.812515
 H        -0.755534        -0.377505        -0.330492
 H        -0.311664         1.218721         0.433197
 H        -0.167303         0.936691        -1.365926
 H         2.455363         1.917526         0.043430
 H         3.600997         0.264517        -1.977765
 H         5.065654        -2.592715         0.494641
 H         4.170033        -1.322960         1.422226
 H         3.023694        -3.014224        -0.865336
 H         2.300329        -2.677920         0.811643
 H         1.854890        -1.474989        -1.767571
