19
Iteration:  3435
 C         0.047368         0.011722        -0.063259
 C         1.550515         0.021221        -0.110174
 O         2.265700         0.660773         0.972909
 C         2.650531         0.953327        -0.445278
 C         3.416101        -0.218697        -1.049026
 O         4.565848        -0.813722        -0.359118
 C         3.972126        -1.678808         0.646721
 C         2.727689        -2.402425        -0.063303
 C         2.207371        -1.114423        -0.919290
 H        -0.174352         0.253095        -1.147089
 H        -0.249509        -0.974260         0.266958
 H        -0.617914         0.668937         0.530351
 H         2.654850         2.059324        -0.579011
 H         3.769852         0.034266        -2.063805
 H         4.767532        -2.376580         0.919598
 H         3.711599        -1.204490         1.569366
 H         3.022117        -3.126893        -0.818982
 H         2.019881        -2.656514         0.757456
 H         1.801654        -1.417766        -1.941464
