19
Iteration:   388
 C         0.028939         0.388652        -0.380433
 C         1.431094         0.005537        -0.197479
 O         2.195149         0.209349         1.127229
 C         2.558466         0.954146        -0.106553
 C         3.442546        -0.104732        -0.946656
 O         4.530387        -0.636898        -0.287706
 C         4.232710        -1.864647         0.355706
 C         2.826700        -2.373754        -0.100264
 C         2.169404        -1.130801        -0.820829
 H        -0.461279         0.445955         0.558224
 H        -0.188846         1.329366        -0.878635
 H        -0.535658        -0.366959        -0.930432
 H         2.395014         2.047461        -0.261288
 H         3.653067         0.258048        -1.973397
 H         5.023307        -2.600116         0.004765
 H         4.272818        -1.677498         1.460078
 H         2.843492        -3.185628        -0.738486
 H         2.272971        -2.765610         0.802964
 H         1.705610        -1.471488        -1.834925
