19
Iteration:  2209charge 0 multiplicity 1
 C         0.041011        -0.011031        -0.213025
 C         1.498529         0.026299        -0.175050
 O         2.250590         0.210009         1.081375
 C         2.700924         0.923977        -0.060834
 C         3.500729        -0.028041        -1.069241
 O         4.493029        -0.795517        -0.356690
 C         3.981015        -1.702092         0.562398
 C         2.689083        -2.190603        -0.176915
 C         2.263795        -0.898181        -1.022104
 H        -0.267956        -1.006518         0.173974
 H        -0.539279         0.652262         0.494288
 H        -0.205546         0.000884        -1.312506
 H         2.780197         1.975668        -0.017233
 H         4.020335         0.391597        -1.947780
 H         4.621610        -2.499200         0.641890
 H         3.684018        -1.185106         1.505475
 H         3.023444        -3.040796        -0.804577
 H         1.989509        -2.429931         0.699387
 H         1.763155        -1.268473        -1.898554
