19
Iteration:  2210charge 0 multiplicity 1
 C         0.047579        -0.014180        -0.211864
 C         1.501013         0.019127        -0.173191
 O         2.249473         0.219984         1.083505
 C         2.693196         0.927136        -0.054703
 C         3.503949        -0.028728        -1.074389
 O         4.497257        -0.801604        -0.352639
 C         3.975459        -1.700058         0.555086
 C         2.690361        -2.200673        -0.173946
 C         2.253980        -0.895590        -1.026417
 H        -0.263446        -1.015269         0.153244
 H        -0.550890         0.650126         0.503455
 H        -0.180584         0.038355        -1.298395
 H         2.781575         2.002296        -0.012218
 H         4.026878         0.377907        -1.944043
 H         4.650044        -2.495260         0.686601
 H         3.669655        -1.157513         1.466615
 H         3.032884        -3.036501        -0.826903
 H         2.019225        -2.416029         0.683472
 H         1.748565        -1.261029        -1.920133
