19
Iteration:  2903
 C        -0.086883         0.363802        -0.185398
 C         1.408077         0.052521        -0.152467
 O         2.261167         0.548227         0.919224
 C         2.556171         0.941296        -0.349933
 C         3.366966        -0.234037        -0.993953
 O         4.586738        -0.690057        -0.263928
 C         4.172524        -1.963033         0.514009
 C         2.943920        -2.448142        -0.139947
 C         2.176769        -1.166541        -0.697322
 H        -0.481476         0.046461         0.797387
 H        -0.312381         1.381962        -0.475948
 H        -0.537052        -0.249368        -0.968992
 H         2.498996         2.034201        -0.507870
 H         3.555498        -0.016563        -2.082865
 H         5.119005        -2.492786         0.523600
 H         3.997090        -1.667501         1.593927
 H         3.072039        -3.101365        -0.972902
 H         2.361728        -3.093150         0.550389
 H         1.579659        -1.448833        -1.605466
