19
Iteration:  3132
 C         0.037149        -0.054786         0.080754
 C         1.535222         0.045029        -0.267807
 O         2.387655         0.573038         0.797181
 C         2.647658         1.040777        -0.490584
 C         3.477317        -0.163355        -1.111390
 O         4.447072        -0.694653        -0.129879
 C         3.974568        -1.883232         0.620581
 C         2.622868        -2.305130         0.006761
 C         2.255999        -1.095012        -1.003654
 H        -0.289606        -0.948891        -0.442709
 H        -0.152139        -0.143238         1.208272
 H        -0.616831         0.800283        -0.136014
 H         2.879588         2.111325        -0.510271
 H         4.101227        -0.053985        -2.006648
 H         4.755151        -2.654311         0.605509
 H         3.949218        -1.608189         1.674379
 H         2.713797        -3.127663        -0.647525
 H         1.789783        -2.260440         0.726231
 H         1.774371        -1.500583        -1.900045
