19
Iteration:  2585
 C         0.022583         0.412422         0.089703
 C         1.457141        -0.081267        -0.141523
 O         2.245257         0.322991         0.921682
 C         2.542333         0.896077        -0.381691
 C         3.477669        -0.045912        -0.950968
 O         4.505154        -0.644091        -0.125784
 C         3.995382        -1.868895         0.554388
 C         2.880083        -2.400906        -0.350599
 C         2.246901        -1.175787        -1.016261
 H        -0.694513        -0.247221        -0.456285
 H        -0.299337         0.497048         1.086196
 H         0.050417         1.411283        -0.434945
 H         2.392243         1.975790        -0.665017
 H         3.926363         0.172540        -1.944895
 H         4.815714        -2.573293         0.694627
 H         3.637757        -1.662638         1.586575
 H         3.361496        -3.092415        -1.133838
 H         2.203554        -3.021405         0.237580
 H         1.999455        -1.483462        -2.063404
