19
Iteration:  2492
 C        -0.046841         0.146713        -0.218355
 C         1.453927         0.042752        -0.242657
 O         2.154343         0.459027         1.000989
 C         2.664574         0.959032        -0.256291
 C         3.491124        -0.118322        -1.020106
 O         4.576512        -0.724981        -0.280177
 C         4.180270        -1.942454         0.400427
 C         2.662367        -2.249492         0.042726
 C         2.270626        -1.116852        -0.798437
 H        -0.394027         0.775242        -1.019633
 H        -0.640681        -0.762797        -0.362374
 H        -0.377807         0.639370         0.678218
 H         2.788808         2.048205        -0.370763
 H         3.759637         0.126488        -2.058389
 H         4.869570        -2.798358         0.066152
 H         4.470125        -1.816720         1.462739
 H         2.550673        -3.068038        -0.627666
 H         1.954177        -2.381623         0.876284
 H         2.080168        -1.489836        -1.788457
