19
Iteration:  4307charge 0 multiplicity 1
 C         0.032546         0.345515        -0.119071
 C         1.423902        -0.106021        -0.280622
 O         2.202694         0.275305         0.906534
 C         2.627138         0.855148        -0.375916
 C         3.405095        -0.131924        -1.040610
 O         4.498625        -0.669263        -0.343631
 C         4.121674        -1.576872         0.652687
 C         2.808250        -2.374097         0.083987
 C         2.253665        -1.212142        -0.910656
 H        -0.357562         0.449366        -1.177498
 H        -0.609325        -0.542097         0.322531
 H        -0.114476         1.368900         0.431098
 H         2.664189         1.938733        -0.413259
 H         3.759526         0.080860        -2.100675
 H         4.912275        -2.384322         0.806539
 H         4.071544        -1.063852         1.667902
 H         3.252586        -3.284952        -0.424756
 H         2.000555        -2.468671         0.916538
 H         1.995180        -1.722379        -1.887050
