19
Iteration:   938
 C        -0.057610         0.121236        -0.251966
 C         1.436899         0.012476        -0.126689
 O         2.328118         0.320791         1.042077
 C         2.617982         0.989386        -0.148589
 C         3.487926        -0.075585        -0.927711
 O         4.561481        -0.680227        -0.247762
 C         4.137318        -1.935166         0.277698
 C         2.634159        -2.237839        -0.083925
 C         2.260422        -1.045469        -0.897840
 H        -0.610937        -0.691589         0.205060
 H        -0.532723         1.118694        -0.074674
 H        -0.300582        -0.060065        -1.299517
 H         2.525773         2.063464        -0.177456
 H         3.724206         0.311754        -1.936752
 H         4.881256        -2.722581        -0.111998
 H         4.195189        -1.915959         1.360771
 H         2.425187        -3.259737        -0.482078
 H         2.164408        -2.069952         0.900567
 H         1.963127        -1.301127        -1.904167
