19
Iteration:  4865charge 0 multiplicity 1
 C        -0.027275         0.324468        -0.523137
 C         1.397577        -0.003889        -0.276119
 O         1.989540         0.544964         1.001499
 C         2.549793         0.903265        -0.203203
 C         3.406739        -0.284143        -0.943238
 O         4.557875        -0.645271        -0.294396
 C         4.390189        -2.005339         0.149986
 C         2.905460        -2.188400         0.394630
 C         2.254620        -1.262173        -0.647792
 H        -0.655352        -0.262626        -1.289432
 H        -0.459002        -0.196919         0.378568
 H        -0.280536         1.366655        -0.580322
 H         2.471393         1.945185        -0.629821
 H         3.598849         0.000353        -2.018580
 H         4.649349        -2.680118        -0.649586
 H         5.011120        -2.113670         1.102726
 H         2.625089        -3.268374         0.500079
 H         2.767025        -1.708162         1.362780
 H         1.848728        -1.608653        -1.624860
