19
Iteration:  1196
 C        -0.090230         0.449755        -0.494768
 C         1.315227         0.006146        -0.139187
 O         1.947145         0.262887         1.213057
 C         2.567066         0.852193         0.012799
 C         3.396064        -0.064610        -0.789664
 O         4.680452        -0.749172        -0.497029
 C         4.375034        -1.887374         0.242648
 C         2.878381        -2.266691        -0.039725
 C         2.290463        -1.154043        -0.819712
 H        -0.767512        -0.217949        -0.041669
 H        -0.331061         1.540454        -0.383626
 H        -0.133292         0.178557        -1.540576
 H         2.713438         1.921483        -0.003853
 H         3.512033         0.354668        -1.804613
 H         5.128696        -2.683115         0.004380
 H         4.539011        -1.801437         1.307621
 H         2.817451        -3.351551        -0.480192
 H         2.470482        -2.285442         0.997453
 H         2.083652        -1.436374        -1.898435
