19
Iteration:  4624
 C        -0.000697         0.220056        -0.290619
 C         1.419235         0.063292        -0.219831
 O         2.014558         0.529265         1.029651
 C         2.584337         0.965975        -0.326696
 C         3.428734        -0.209646        -0.937483
 O         4.615221        -0.740381        -0.418044
 C         4.246572        -1.839958         0.473684
 C         2.882685        -2.310200         0.099038
 C         2.221090        -1.211475        -0.795222
 H        -0.336543        -0.303766        -1.241475
 H        -0.404394        -0.212784         0.646276
 H        -0.116309         1.371718        -0.266991
 H         2.538618         2.010867        -0.594070
 H         3.552726        -0.144414        -1.981974
 H         5.013652        -2.603768         0.304355
 H         4.299715        -1.617413         1.590045
 H         2.740834        -3.222646        -0.447922
 H         2.317269        -2.583786         1.054950
 H         1.797477        -1.776178        -1.612356
