19
Iteration:  1105
 C        -0.043569         0.239784        -0.264906
 C         1.478840         0.026150        -0.254919
 O         2.044818         0.124858         1.044701
 C         2.719346         0.862934        -0.014514
 C         3.474674        -0.032785        -0.973904
 O         4.556176        -0.797522        -0.517760
 C         4.172760        -1.720918         0.502974
 C         2.732291        -2.217047         0.031775
 C         2.312155        -1.026050        -0.951823
 H        -0.509987        -0.729889         0.035293
 H        -0.330681         0.943689         0.468837
 H        -0.474742         0.535846        -1.222390
 H         2.929631         1.937560         0.164543
 H         3.685357         0.459546        -1.939221
 H         5.020023        -2.399967         0.557115
 H         4.105186        -1.341902         1.482507
 H         2.669645        -3.094970        -0.594426
 H         1.988327        -2.218018         0.921221
 H         2.008124        -1.257945        -1.934445
