19
Iteration:  4189
 C        -0.043117         0.210452        -0.308433
 C         1.528982         0.036815        -0.237086
 O         2.203379         0.391177         0.982987
 C         2.560072         0.951620        -0.329670
 C         3.451430        -0.187203        -0.941374
 O         4.583995        -0.692692        -0.395572
 C         4.195053        -1.728465         0.446765
 C         2.727986        -2.305622         0.170446
 C         2.200215        -1.268983        -0.779629
 H        -0.359033         0.088405        -1.325418
 H        -0.361033        -0.750142         0.159982
 H        -0.518261         1.099836         0.091564
 H         2.501942         2.028428        -0.440421
 H         3.694951         0.249325        -1.916609
 H         4.898134        -2.514521         0.632061
 H         4.203059        -1.253235         1.426198
 H         2.898867        -3.182413        -0.352581
 H         2.112943        -2.413362         1.096941
 H         1.752410        -1.363829        -1.753129
