19
Iteration:   264
 C        -0.030360         0.089755        -0.184628
 C         1.442300         0.100525        -0.253043
 O         2.137468         0.169297         1.000278
 C         2.619865         1.021925        -0.081991
 C         3.550313        -0.001699        -0.914687
 O         4.595218        -0.784541        -0.283980
 C         4.074628        -1.901738         0.468111
 C         2.699557        -2.191538        -0.143026
 C         2.333346        -0.965174        -1.034643
 H        -0.518377         1.049455        -0.029178
 H        -0.455908        -0.368751        -1.020999
 H        -0.250256        -0.485597         0.645924
 H         2.697848         2.089271         0.199497
 H         3.963992         0.393290        -1.869192
 H         4.788972        -2.689673         0.287897
 H         3.980464        -1.718643         1.570486
 H         2.750268        -3.102869        -0.711578
 H         1.924139        -2.333039         0.547474
 H         1.988367        -1.149112        -2.082271
