19
Iteration:  1702charge 0 multiplicity 1
 C        -0.042335         0.094706        -0.493076
 C         1.414229         0.095971        -0.234738
 O         2.042318         0.405613         1.118656
 C         2.662063         0.991603        -0.038328
 C         3.393559        -0.086240        -0.801799
 O         4.596959        -0.684504        -0.241167
 C         4.346306        -2.076990        -0.035399
 C         2.670273        -2.215048         0.104696
 C         2.335854        -1.042630        -0.702096
 H        -0.498280        -0.936737        -0.526073
 H        -0.712742         0.783653         0.137949
 H        -0.215342         0.638351        -1.445429
 H         2.863702         2.070855         0.122930
 H         3.499282         0.372966        -1.790661
 H         4.584908        -2.664708        -0.935877
 H         4.882240        -2.430785         0.798663
 H         2.333379        -3.186182        -0.224470
 H         2.406652        -2.122243         1.148727
 H         2.132412        -1.524476        -1.629126
