19
Iteration:  3757charge 0 multiplicity 1
 C         0.102870         0.048073        -0.127662
 C         1.523323        -0.043017        -0.235919
 O         2.227731         0.308160         0.941242
 C         2.686043         0.949080        -0.234331
 C         3.435478        -0.151324        -1.087856
 O         4.560443        -0.734043        -0.371508
 C         3.941993        -1.590731         0.655528
 C         2.676636        -2.181815        -0.018569
 C         2.212548        -1.131830        -0.957236
 H        -0.439554         0.156925        -1.080255
 H        -0.181507        -0.877701         0.490650
 H        -0.160373         0.887847         0.535139
 H         2.933043         1.962217        -0.451936
 H         3.780999         0.157648        -2.069693
 H         4.728657        -2.328333         0.884928
 H         3.721507        -1.045641         1.587732
 H         3.140290        -3.069633        -0.531732
 H         2.023388        -2.651506         0.720674
 H         1.762080        -1.491142        -1.863773
