19
Iteration:  3925
 C        -0.116394         0.130662        -0.355320
 C         1.395934         0.031993        -0.318739
 O         1.906975         0.599747         0.940415
 C         2.569961         0.981719        -0.264802
 C         3.507370        -0.149728        -0.763789
 O         4.671764        -0.721984        -0.214069
 C         4.372867        -2.111854         0.016835
 C         2.805596        -2.204555         0.300010
 C         2.303077        -1.111498        -0.680708
 H        -0.610672        -0.069894        -1.333528
 H        -0.378463        -0.663401         0.324933
 H        -0.502171         1.127006        -0.050447
 H         2.714427         2.072173        -0.614399
 H         3.653140         0.113896        -1.819081
 H         4.678982        -2.591834        -0.904644
 H         4.906556        -2.421457         0.930744
 H         2.266149        -3.162495         0.173207
 H         2.704356        -1.904466         1.371234
 H         2.108203        -1.666193        -1.621714
