19
Iteration:   903
 C        -0.044517         0.214641        -0.288949
 C         1.504501         0.138316        -0.278121
 O         1.988953         0.143839         1.048919
 C         2.706788         0.904405         0.023402
 C         3.462163        -0.110817        -0.919355
 O         4.593144        -0.812510        -0.551568
 C         4.224345        -1.831110         0.384215
 C         2.711349        -2.084281         0.066567
 C         2.303357        -1.048055        -0.911678
 H        -0.288391        -0.810821         0.059291
 H        -0.470690         0.802427         0.607600
 H        -0.433620         0.439178        -1.312063
 H         2.725900         1.953054         0.379468
 H         3.670319         0.339774        -1.908196
 H         5.008693        -2.574209         0.244571
 H         4.231160        -1.477178         1.464435
 H         2.407058        -3.136791        -0.183041
 H         2.280825        -1.913725         0.974538
 H         2.003526        -1.459241        -1.934529
