19
Iteration:  4386
 C         0.001705         0.106031        -0.340795
 C         1.474145        -0.017248        -0.089090
 O         2.183257         0.535593         0.992390
 C         2.579014         0.926520        -0.416920
 C         3.412591        -0.188600        -0.975932
 O         4.603342        -0.664516        -0.385349
 C         4.247170        -1.860300         0.457232
 C         2.684207        -2.273545         0.131737
 C         2.233230        -1.136384        -0.738524
 H        -0.133930         0.066152        -1.422052
 H        -0.586063        -0.772780         0.131524
 H        -0.484638         1.006950         0.127780
 H         2.487618         2.017939        -0.455460
 H         3.706731         0.168305        -1.989717
 H         4.824858        -2.789594         0.300071
 H         4.341481        -1.439997         1.498965
 H         2.744308        -3.266320        -0.342296
 H         2.000504        -2.410996         1.044603
 H         1.799067        -1.517879        -1.666067
