19
Iteration:   645charge 0 multiplicity 1
 C         0.014011         0.391421        -0.280868
 C         1.415422        -0.030889        -0.140601
 O         2.035216         0.298265         1.097807
 C         2.600328         0.847134        -0.146912
 C         3.455322        -0.147977        -0.908493
 O         4.643794        -0.676576        -0.372720
 C         4.209423        -1.800733         0.429044
 C         2.822350        -2.372404        -0.156178
 C         2.197259        -1.109192        -0.881508
 H        -0.648275         0.272042         0.653551
 H        -0.101083         1.501126        -0.533800
 H        -0.384006        -0.145725        -1.168057
 H         2.711209         1.956741        -0.093870
 H         3.632105         0.309565        -1.896789
 H         5.051041        -2.586889         0.338203
 H         4.103737        -1.501445         1.481192
 H         3.077193        -3.161330        -0.878030
 H         2.218165        -2.932038         0.623825
 H         1.769903        -1.323722        -1.823495
