19
Iteration:  2898
 C        -0.059743         0.352747        -0.141807
 C         1.400103         0.055726        -0.150483
 O         2.250744         0.533835         0.925575
 C         2.555256         0.969920        -0.349581
 C         3.385031        -0.195225        -1.037795
 O         4.557194        -0.711033        -0.240169
 C         4.163931        -1.941215         0.553250
 C         2.895810        -2.450810        -0.150367
 C         2.228552        -1.190980        -0.759466
 H        -0.463161         0.117854         0.883528
 H        -0.361944         1.357870        -0.530299
 H        -0.549598        -0.390740        -0.841311
 H         2.527284         1.992227        -0.719330
 H         3.729296        -0.078954        -2.057679
 H         5.128464        -2.501479         0.444071
 H         4.046851        -1.690226         1.583110
 H         3.147994        -3.008088        -1.135283
 H         2.362150        -2.954114         0.664859
 H         1.546042        -1.536890        -1.546126
