19
Iteration:  3440charge 0 multiplicity 1
 C         0.052794        -0.006574        -0.112519
 C         1.546054         0.047448        -0.078177
 O         2.278519         0.601631         0.974619
 C         2.633717         1.006422        -0.401547
 C         3.433877        -0.204985        -1.109336
 O         4.545079        -0.833853        -0.397680
 C         4.011997        -1.665653         0.693549
 C         2.695674        -2.407257        -0.021432
 C         2.184530        -1.069478        -0.939947
 H        -0.173617         0.109943        -1.150647
 H        -0.263938        -1.029592         0.214239
 H        -0.460132         0.727248         0.513050
 H         2.667793         2.055249        -0.594268
 H         3.836686         0.042342        -2.091350
 H         4.803487        -2.398797         0.952927
 H         3.709778        -1.107215         1.650826
 H         3.099377        -3.200454        -0.698707
 H         1.959101        -2.743630         0.726837
 H         1.808958        -1.462944        -1.852122
