19
Iteration:   533
 C        -0.028673         0.407160        -0.252419
 C         1.378455        -0.061162        -0.030964
 O         2.214432         0.336705         1.058479
 C         2.567133         0.894234        -0.214642
 C         3.420061        -0.122962        -0.973385
 O         4.516656        -0.565216        -0.180468
 C         4.192871        -1.837636         0.407307
 C         2.849741        -2.463072        -0.303280
 C         2.273824        -1.193323        -0.874735
 H        -0.735677        -0.443732        -0.202002
 H        -0.356494         1.172257         0.458273
 H        -0.047446         0.856693        -1.293718
 H         2.623245         1.959467        -0.292916
 H         3.795281         0.136039        -1.969162
 H         5.144617        -2.522243         0.418406
 H         3.938729        -1.691533         1.420959
 H         3.021308        -3.232842        -1.111833
 H         2.335688        -3.028589         0.423527
 H         1.607406        -1.358521        -1.710125
