19
Iteration:  3509
 C        -0.047684         0.459291        -0.282065
 C         1.385744        -0.037526        -0.276004
 O         2.023896         0.307150         0.925360
 C         2.487233         0.834745        -0.271682
 C         3.359836        -0.196285        -0.896068
 O         4.615815        -0.709714        -0.451869
 C         4.399594        -1.837661         0.400768
 C         2.856420        -2.204491         0.305070
 C         2.295096        -1.244081        -0.779884
 H        -0.558725         0.255969        -1.310638
 H        -0.695495         0.099846         0.530352
 H         0.040910         1.569120        -0.155442
 H         2.573023         1.939715        -0.494426
 H         3.539069         0.096504        -1.980045
 H         5.057740        -2.693484         0.070257
 H         4.685918        -1.539179         1.409322
 H         2.938738        -3.174109        -0.166251
 H         2.239878        -2.160041         1.181273
 H         1.969114        -1.580923        -1.791838
