19
Iteration:  1056
 C        -0.031455        -0.029554        -0.063185
 C         1.484127         0.053082        -0.127330
 O         2.267841         0.475075         0.968947
 C         2.621599         1.055017        -0.296521
 C         3.536074        -0.056886        -0.977652
 O         4.459571        -0.644998        -0.092828
 C         4.035388        -2.062229         0.356963
 C         2.733129        -2.284684        -0.197243
 C         2.304916        -1.033802        -0.969636
 H        -0.452388        -0.703311         0.723304
 H        -0.447438         1.049311         0.114532
 H        -0.482558        -0.301383        -1.047719
 H         2.755638         2.118972        -0.258194
 H         3.998820         0.193579        -1.949566
 H         4.813022        -2.756044        -0.058625
 H         4.112984        -2.084089         1.514347
 H         2.771499        -3.120334        -0.931174
 H         2.011080        -2.505208         0.515417
 H         1.942527        -1.185463        -2.063772
