19
Iteration:  4901charge 0 multiplicity 1
 C        -0.080100         0.138252        -0.542459
 C         1.395817         0.032158        -0.123544
 O         2.149101         0.687605         0.949322
 C         2.492619         0.940236        -0.394376
 C         3.468572        -0.231384        -0.920624
 O         4.553620        -0.652967        -0.125447
 C         4.337022        -2.070487         0.075299
 C         2.844299        -2.271756         0.303603
 C         2.257593        -1.107549        -0.518114
 H        -0.088150         0.032355        -1.650673
 H        -0.613784        -0.721113         0.112249
 H        -0.634500         1.029973        -0.149176
 H         2.259981         1.904530        -0.736396
 H         3.624484        -0.310137        -2.004080
 H         4.684586        -2.648829        -0.786692
 H         5.062956        -2.328417         0.823407
 H         2.463875        -3.306292        -0.000971
 H         2.505172        -2.097224         1.339422
 H         1.768665        -1.575941        -1.398972
