19
Iteration:  2486
 C        -0.081695         0.219986        -0.213078
 C         1.442380         0.083430        -0.280327
 O         2.122732         0.401777         1.004446
 C         2.631828         0.961836        -0.282955
 C         3.496651        -0.161318        -0.999120
 O         4.582777        -0.698420        -0.283678
 C         4.203659        -1.981687         0.393975
 C         2.752482        -2.258868         0.049444
 C         2.268948        -1.107475        -0.788388
 H        -0.343811         0.966538        -1.022809
 H        -0.596678        -0.730173        -0.429905
 H        -0.373227         0.728355         0.730099
 H         2.728372         2.033521        -0.303830
 H         3.694148         0.050975        -2.075710
 H         4.845642        -2.744797         0.014139
 H         4.322854        -1.860939         1.474172
 H         2.511003        -3.292295        -0.400420
 H         2.241236        -2.367441         1.020276
 H         1.978170        -1.436107        -1.818434
