19
Iteration:  4003charge 0 multiplicity 1
 C        -0.028742         0.302243        -0.224305
 C         1.449472        -0.021610        -0.224066
 O         2.095770         0.352134         0.928243
 C         2.582657         0.848519        -0.408668
 C         3.468871        -0.202080        -1.011151
 O         4.448244        -0.536579        -0.144164
 C         4.298555        -1.875661         0.348008
 C         2.834378        -2.265311         0.173486
 C         2.284684        -1.210062        -0.894621
 H        -0.466845         0.377572        -1.219408
 H        -0.609204        -0.496220         0.291581
 H        -0.158942         1.245595         0.338100
 H         2.504977         1.930262        -0.345608
 H         3.610740        -0.111044        -2.081688
 H         5.047594        -2.558545        -0.098209
 H         4.515961        -1.898754         1.469297
 H         2.585021        -3.292732         0.009694
 H         2.407068        -1.868853         1.147889
 H         2.042082        -1.617312        -1.888780
