19
Iteration:  2347charge 0 multiplicity 1
 C        -0.109242         0.094300        -0.331064
 C         1.383050         0.135278        -0.202294
 O         1.988193         0.452386         1.002634
 C         2.621865         1.002758        -0.156938
 C         3.534910        -0.126326        -0.781194
 O         4.684279        -0.703602        -0.057987
 C         4.266485        -2.189783        -0.128094
 C         2.750704        -2.168218         0.149319
 C         2.277965        -1.019497        -0.836033
 H        -0.431684        -0.625445        -1.055634
 H        -0.474985        -0.314819         0.566267
 H        -0.590089         1.014160        -0.655744
 H         2.720144         2.056388        -0.235139
 H         3.945213         0.281245        -1.708217
 H         4.357314        -2.412177        -1.199854
 H         4.924428        -2.590180         0.639068
 H         2.251878        -3.073857        -0.114456
 H         2.602350        -1.999979         1.231340
 H         2.090724        -1.382372        -1.857518
