19
Iteration:  3157
 C         0.035123        -0.025899        -0.036258
 C         1.544662         0.030883        -0.211806
 O         2.357807         0.487881         0.903066
 C         2.655695         0.939073        -0.480956
 C         3.484201        -0.151871        -1.116688
 O         4.615805        -0.778525        -0.286328
 C         3.914429        -1.699832         0.635452
 C         2.584764        -2.231435         0.032832
 C         2.220513        -1.093866        -0.911218
 H        -0.324339        -0.644772        -0.883215
 H        -0.286485        -0.554222         0.970476
 H        -0.494560         0.971983         0.141327
 H         2.471878         1.995690        -0.604736
 H         4.006783         0.044454        -2.089596
 H         4.660019        -2.509797         0.813552
 H         3.798751        -1.371058         1.702094
 H         2.664873        -3.078556        -0.638070
 H         1.828804        -2.260140         0.834970
 H         1.701627        -1.474021        -1.786934
