19
Iteration:  3098
 C        -0.036903         0.196242         0.088447
 C         1.443847        -0.029801        -0.173014
 O         2.293150         0.717811         0.820825
 C         2.577920         0.941757        -0.573636
 C         3.473926        -0.260132        -1.038901
 O         4.495788        -0.669714        -0.053062
 C         4.108695        -1.947269         0.556785
 C         2.751475        -2.364657        -0.164042
 C         2.299567        -1.169697        -0.901519
 H        -0.625272        -0.720921        -0.159183
 H        -0.193187         0.334615         1.157387
 H        -0.400755         0.932968        -0.620595
 H         2.665065         2.052293        -0.583194
 H         4.018638        -0.196414        -1.980686
 H         4.977357        -2.542126         0.323661
 H         3.843624        -1.896120         1.591593
 H         2.742721        -3.158033        -0.933675
 H         2.037489        -2.887795         0.517962
 H         1.758411        -1.402158        -1.853668
