19
Iteration:  3121
 C         0.067373         0.003127         0.105413
 C         1.487226         0.107566        -0.286335
 O         2.327394         0.568932         0.796614
 C         2.697713         1.009421        -0.546493
 C         3.491983        -0.141676        -1.078718
 O         4.468316        -0.681369        -0.071537
 C         3.987998        -1.889125         0.594663
 C         2.638958        -2.321212        -0.070241
 C         2.254460        -1.159305        -0.915889
 H        -0.394256        -0.943856        -0.225474
 H         0.080430        -0.096136         1.245065
 H        -0.510845         0.796551        -0.364017
 H         2.594629         2.071274        -0.849216
 H         3.907279         0.132488        -2.072423
 H         4.754502        -2.586601         0.306992
 H         3.785322        -1.795377         1.643933
 H         2.688192        -3.297546        -0.509403
 H         1.978599        -2.724663         0.735680
 H         1.747141        -1.379500        -1.872644
