19
Iteration:  1664
 C         0.020654         0.444340        -0.314316
 C         1.384883        -0.070308        -0.148675
 O         2.055906         0.277680         1.050880
 C         2.479553         0.870820        -0.163665
 C         3.417782        -0.122333        -0.923520
 O         4.473944        -0.580694        -0.107098
 C         4.367235        -2.001605         0.113960
 C         2.828392        -2.238086         0.003951
 C         2.357029        -1.197987        -0.889962
 H        -0.754322        -0.308404        -0.157036
 H        -0.047638         1.245818         0.379278
 H         0.002505         0.699986        -1.437215
 H         2.646960         1.918324        -0.175176
 H         3.722811         0.129974        -1.968001
 H         4.982776        -2.486165        -0.643970
 H         4.895791        -2.279680         1.091596
 H         2.452204        -3.284114        -0.187586
 H         2.404461        -1.944230         1.028407
 H         1.807020        -1.395947        -1.878322
