19
Iteration:  3616
 C        -0.094943         0.156137        -0.279266
 C         1.369090         0.123518        -0.414174
 O         1.944930         0.466111         0.933238
 C         2.600921         0.970886        -0.251616
 C         3.528650        -0.142396        -0.859929
 O         4.607605        -0.660985        -0.139113
 C         4.282663        -2.135966         0.002212
 C         2.827682        -2.074702         0.339819
 C         2.334551        -1.221784        -0.728647
 H        -0.668912         0.275280        -1.171650
 H        -0.249653        -0.792843         0.215511
 H        -0.417121         0.889077         0.429232
 H         2.833290         2.034871        -0.565713
 H         3.788813         0.013141        -1.901843
 H         4.469237        -2.683757        -0.954716
 H         4.875784        -2.674079         0.747176
 H         2.239856        -3.039235         0.450748
 H         2.741787        -1.651001         1.325392
 H         2.221780        -1.683445        -1.703152
