19
Iteration:  3894
 C        -0.095700         0.210932        -0.447920
 C         1.395174        -0.030101        -0.282992
 O         2.054578         0.442462         1.041635
 C         2.530201         0.929482        -0.223020
 C         3.492990        -0.205783        -0.882803
 O         4.573456        -0.654871        -0.128937
 C         4.328604        -2.033850        -0.033802
 C         2.815065        -2.106584         0.343889
 C         2.309467        -1.133381        -0.742797
 H        -0.442657        -0.357683        -1.302252
 H        -0.637062        -0.156873         0.425377
 H        -0.361768         1.267153        -0.546147
 H         2.535912         1.997773        -0.597376
 H         3.715652        -0.019267        -1.933157
 H         4.615103        -2.379859        -1.022519
 H         5.011495        -2.535019         0.698679
 H         2.224747        -3.000176         0.487586
 H         2.830877        -1.557968         1.331904
 H         2.011785        -1.755751        -1.625648
