19
Iteration:  2349
 C        -0.104188         0.097631        -0.341808
 C         1.384950         0.148306        -0.206744
 O         1.972200         0.457543         1.019246
 C         2.616154         0.993386        -0.152955
 C         3.556288        -0.116622        -0.764267
 O         4.680676        -0.707548        -0.080538
 C         4.260279        -2.197309        -0.134377
 C         2.759286        -2.178057         0.159857
 C         2.279209        -1.026716        -0.840758
 H        -0.365072        -0.651395        -1.063012
 H        -0.487085        -0.393223         0.568472
 H        -0.632097         1.019852        -0.614959
 H         2.714810         2.075582        -0.312676
 H         3.986189         0.321908        -1.695854
 H         4.351146        -2.458548        -1.229451
 H         4.927238        -2.551991         0.677876
 H         2.185538        -3.038672        -0.120652
 H         2.643803        -1.925455         1.288831
 H         2.069185        -1.370266        -1.856700
