19
Iteration:   587charge 0 multiplicity 1
 C        -0.066616         0.091035        -0.318442
 C         1.438382         0.093401        -0.214407
 O         1.985596         0.212637         1.062580
 C         2.778272         0.911492         0.026697
 C         3.511258        -0.055395        -0.828904
 O         4.671630        -0.790851        -0.533382
 C         4.108384        -1.840538         0.362499
 C         2.682501        -2.141895         0.023052
 C         2.331569        -0.972989        -0.944509
 H        -0.494773        -0.467053         0.473864
 H        -0.462800         1.090452        -0.277791
 H        -0.513544        -0.422424        -1.191479
 H         3.021185         1.940184         0.152700
 H         3.712350         0.396855        -1.807175
 H         4.733165        -2.789442         0.292206
 H         4.146724        -1.462702         1.322941
 H         2.606263        -3.175036        -0.433568
 H         2.231891        -1.985421         0.964046
 H         1.965535        -1.231151        -1.965533
