19
Iteration:  2167
 C        -0.078142         0.272874        -0.172560
 C         1.443488        -0.013983        -0.243564
 O         2.023444         0.235369         1.048709
 C         2.577562         0.890384        -0.154266
 C         3.542558        -0.034409        -0.928224
 O         4.575103        -0.677360        -0.259001
 C         4.217692        -1.915757         0.362819
 C         2.811635        -2.263872        -0.129651
 C         2.329550        -1.105293        -0.951627
 H        -0.395028        -0.134645         0.794146
 H        -0.232292         1.391025         0.004817
 H        -0.708710         0.027053        -1.038314
 H         2.491480         1.959748        -0.197585
 H         3.898068         0.460349        -1.835295
 H         5.070150        -2.565787         0.036098
 H         4.259043        -1.733719         1.470146
 H         2.708365        -3.193301        -0.721839
 H         2.135086        -2.114050         0.689550
 H         1.929229        -1.324133        -1.957100
