19
Iteration:  4353charge 0 multiplicity 1
 C        -0.076531         0.102537        -0.260602
 C         1.438257         0.103295        -0.164168
 O         2.173701         0.521561         0.984075
 C         2.647817         0.949608        -0.352509
 C         3.390084        -0.204782        -0.980959
 O         4.593714        -0.818998        -0.476717
 C         4.182051        -1.731463         0.624690
 C         2.769280        -2.300917         0.069479
 C         2.292303        -1.200188        -0.832206
 H        -0.447022         0.376429        -1.267813
 H        -0.372605        -1.038692        -0.056940
 H        -0.592419         0.752070         0.526834
 H         2.750409         2.051265        -0.368491
 H         3.677026         0.233417        -1.959117
 H         5.066622        -2.393500         0.871284
 H         3.897693        -1.143848         1.565222
 H         3.049083        -3.147123        -0.531552
 H         2.015325        -2.517936         0.921200
 H         1.826894        -1.361250        -1.796806
