19
Iteration:  4759
 C        -0.098305         0.086601        -0.288304
 C         1.449876         0.023230        -0.126641
 O         2.159645         0.665847         0.890489
 C         2.636888         1.011477        -0.415957
 C         3.393017        -0.209080        -0.945408
 O         4.522189        -0.700106        -0.216378
 C         4.285234        -1.946280         0.394926
 C         2.832904        -2.315703         0.137386
 C         2.249376        -1.164064        -0.765308
 H        -0.232974         0.526842        -1.275880
 H        -0.783153        -0.826072        -0.128895
 H        -0.485937         0.775637         0.431165
 H         2.493736         1.960719        -0.961309
 H         3.677328        -0.160855        -2.027636
 H         4.901693        -2.903529         0.132395
 H         4.558930        -1.699755         1.415895
 H         2.761884        -3.362691        -0.360595
 H         2.301974        -2.391523         1.102597
 H         1.776094        -1.522001        -1.723945
