19
Iteration:  1607
 C        -0.100218         0.205550        -0.233317
 C         1.430991         0.051417        -0.256270
 O         2.113294         0.387366         1.041837
 C         2.618913         0.944130        -0.162892
 C         3.499136        -0.079052        -0.904425
 O         4.507002        -0.678558        -0.058780
 C         4.309641        -2.023121         0.148442
 C         2.792756        -2.238554        -0.069267
 C         2.264194        -1.119067        -0.900106
 H        -0.558951        -0.076209         0.705716
 H        -0.341451         1.266076        -0.516671
 H        -0.567821        -0.296590        -1.053558
 H         2.778636         1.980566        -0.506222
 H         3.915619         0.287413        -1.872231
 H         4.975641        -2.592205        -0.504526
 H         4.437368        -2.245182         1.295439
 H         2.545882        -3.214766        -0.586244
 H         2.256684        -2.336301         0.968738
 H         1.713283        -1.337715        -1.839248
