19
Iteration:  2882
 C        -0.028163         0.242387        -0.008370
 C         1.505351        -0.005455        -0.137364
 O         2.219041         0.546917         0.962570
 C         2.590047         0.919844        -0.477324
 C         3.492665        -0.218274        -1.019359
 O         4.468204        -0.700539        -0.198825
 C         4.087550        -1.843507         0.520869
 C         2.818589        -2.372075        -0.124347
 C         2.253828        -1.177092        -0.941635
 H        -0.224257         0.435683         1.036318
 H        -0.241677         1.123301        -0.620963
 H        -0.646838        -0.544601        -0.403445
 H         2.564140         2.025263        -0.533274
 H         3.888212         0.131758        -2.017054
 H         4.890654        -2.596090         0.481344
 H         4.008582        -1.544082         1.624437
 H         3.084577        -3.229500        -0.693843
 H         2.009047        -2.896791         0.404991
 H         1.898291        -1.324256        -1.973778
