19
Iteration:  3077charge 0 multiplicity 1
 C        -0.068245         0.342127        -0.075978
 C         1.469431         0.044671        -0.096487
 O         2.300956         0.680661         0.903583
 C         2.570020         0.931241        -0.522883
 C         3.409822        -0.227560        -0.966787
 O         4.447891        -0.682110        -0.159100
 C         4.117873        -1.950260         0.499241
 C         2.939325        -2.555334        -0.134123
 C         2.235177        -1.170407        -0.806385
 H        -0.591039        -0.602680        -0.398960
 H        -0.341299         0.545590         1.011653
 H        -0.461889         1.020325        -0.842089
 H         2.234257         1.893806        -0.989669
 H         4.001566        -0.168031        -1.871768
 H         4.979985        -2.570277         0.339347
 H         3.962305        -1.625901         1.516407
 H         3.114685        -3.218601        -0.974772
 H         2.221225        -3.111574         0.552304
 H         1.686764        -1.432291        -1.734462
