19
Iteration:    30
 C        -0.168980         0.507726        -0.274026
 C         1.341761         0.049325        -0.164641
 O         1.956252         0.376867         1.131448
 C         2.476573         0.882242        -0.130802
 C         3.508771        -0.165083        -0.850916
 O         4.677552        -0.744272        -0.404780
 C         4.272010        -1.883465         0.428013
 C         2.983306        -2.432538        -0.241273
 C         2.338819        -1.184255        -0.850432
 H        -0.198254         1.250575         0.482111
 H        -0.469526         0.994573        -1.195829
 H        -0.864537        -0.288503        -0.035428
 H         2.588219         1.952992        -0.055767
 H         3.733688         0.117147        -1.910304
 H         5.118548        -2.668666         0.372446
 H         4.223815        -1.563763         1.460250
 H         3.270803        -3.188912        -0.995412
 H         2.323059        -3.013293         0.407496
 H         1.967233        -1.336331        -1.869076
