19
Iteration:    49
 C         0.058186         0.471891        -0.334607
 C         1.406349        -0.058687        -0.099330
 O         1.883406         0.336118         1.069437
 C         2.631309         0.865235        -0.062313
 C         3.352331        -0.139473        -0.907004
 O         4.630688        -0.695231        -0.369390
 C         4.327839        -1.897790         0.368434
 C         2.972319        -2.316151        -0.199443
 C         2.120789        -1.155360        -0.752889
 H        -0.113332         1.334150         0.427236
 H        -0.012298         0.880132        -1.405665
 H        -0.780309        -0.304545        -0.254295
 H         2.675402         1.924652        -0.377299
 H         3.575843         0.351315        -1.869189
 H         5.149300        -2.604489         0.300132
 H         4.219156        -1.730295         1.489198
 H         3.337534        -2.934401        -1.171451
 H         2.528226        -3.295565         0.487991
 H         1.621155        -1.445684        -1.698569
