19
Iteration:  1400
 C        -0.103770         0.131201        -0.403009
 C         1.457629         0.013463        -0.288525
 O         1.935769         0.209127         1.049644
 C         2.749215         0.939709         0.065495
 C         3.527063        -0.024909        -0.757672
 O         4.667363        -0.673878        -0.294188
 C         4.221285        -1.995684        -0.024311
 C         2.643909        -2.040212         0.199050
 C         2.344507        -1.034974        -0.898488
 H        -0.430087        -0.524385         0.442799
 H        -0.570445         1.187691        -0.408996
 H        -0.426619        -0.351268        -1.335660
 H         3.144595         1.924923         0.380019
 H         3.604552         0.489332        -1.725124
 H         4.271010        -2.660393        -0.954687
 H         4.962549        -2.396125         0.753894
 H         2.225890        -2.966882        -0.017312
 H         2.240214        -1.952703         1.228079
 H         2.114650        -1.506860        -1.880854
