19
Iteration:  3659charge 0 multiplicity 1
 C        -0.053919         0.267012        -0.329118
 C         1.466057        -0.012797        -0.120932
 O         2.194232         0.531618         1.028974
 C         2.535524         0.850665        -0.472963
 C         3.410085        -0.241955        -0.920875
 O         4.503850        -0.542569        -0.031477
 C         4.314871        -2.005082         0.166604
 C         2.793101        -2.312312         0.045849
 C         2.243158        -1.118943        -0.758427
 H        -0.311585        -0.123328        -1.304071
 H        -0.583189        -0.347473         0.456394
 H        -0.447764         1.274592        -0.239388
 H         2.347185         1.952089        -0.560316
 H         3.686440        -0.116595        -1.949618
 H         5.016694        -2.534404        -0.493572
 H         4.823923        -2.109866         1.137704
 H         2.536244        -3.366256        -0.402855
 H         2.335508        -2.428027         1.037558
 H         1.786224        -1.463839        -1.676552
