19
Iteration:  1064
 C        -0.033982        -0.005493        -0.076880
 C         1.465974         0.034362        -0.129195
 O         2.193483         0.386852         0.956288
 C         2.635140         1.007994        -0.306055
 C         3.554260        -0.045279        -0.971689
 O         4.502436        -0.710655        -0.160215
 C         4.095577        -1.989688         0.396181
 C         2.661877        -2.210183        -0.214728
 C         2.365974        -0.963824        -0.945673
 H        -0.354156        -0.708759         0.688797
 H        -0.494584         0.910909         0.299740
 H        -0.445335        -0.287716        -1.046618
 H         2.751304         2.088854        -0.222110
 H         4.069163         0.263077        -1.897909
 H         4.792452        -2.836562         0.077216
 H         4.203624        -1.970686         1.509103
 H         2.609145        -3.218732        -0.728197
 H         1.938758        -2.161595         0.659936
 H         1.725327        -1.157820        -1.827363
