19
Iteration:  4965
 C        -0.113827         0.143880        -0.160604
 C         1.356006        -0.012815        -0.291874
 O         2.236261         0.529917         0.762025
 C         2.566904         0.934713        -0.471291
 C         3.541276        -0.152348        -0.934948
 O         4.516468        -0.599738        -0.010252
 C         4.331838        -1.963229         0.284585
 C         2.669447        -2.244853         0.267987
 C         2.296041        -1.206226        -0.848700
 H        -0.485400         0.352657        -1.183450
 H        -0.673076        -0.765845         0.257225
 H        -0.363224         0.926052         0.566341
 H         2.440574         1.976908        -0.555980
 H         3.957887        -0.170626        -1.985761
 H         4.763759        -2.585712        -0.562647
 H         4.923999        -2.282558         1.193408
 H         2.322748        -3.323024         0.040535
 H         2.282681        -1.875598         1.210434
 H         1.881454        -1.445230        -1.874818
