19
Iteration:  3922
 C        -0.119680         0.145227        -0.357622
 C         1.383575         0.024232        -0.320971
 O         1.908838         0.580038         0.938109
 C         2.584298         0.989552        -0.292364
 C         3.505643        -0.101094        -0.753811
 O         4.671544        -0.733604        -0.212563
 C         4.360539        -2.121697         0.024828
 C         2.831465        -2.201394         0.332601
 C         2.297011        -1.121626        -0.699066
 H        -0.594245        -0.117907        -1.352047
 H        -0.398680        -0.632117         0.380703
 H        -0.545558         1.120591        -0.047878
 H         2.661681         2.064029        -0.494046
 H         3.688181         0.063121        -1.853862
 H         4.730072        -2.532639        -0.974481
 H         4.918510        -2.469427         0.888101
 H         2.176585        -3.082592         0.155693
 H         2.758749        -1.972942         1.373837
 H         2.066240        -1.663133        -1.608304
