19
Iteration:  3621charge 0 multiplicity 1
 C        -0.103035         0.167046        -0.275081
 C         1.379678         0.114227        -0.437571
 O         1.977151         0.487820         0.928069
 C         2.612889         0.951240        -0.264878
 C         3.510385        -0.148627        -0.846031
 O         4.547873        -0.660227        -0.121077
 C         4.331903        -2.146807        -0.013224
 C         2.802296        -2.113005         0.378762
 C         2.365647        -1.195684        -0.757293
 H        -0.815622         0.256322        -1.146959
 H        -0.261768        -0.781198         0.301800
 H        -0.356389         0.990965         0.451219
 H         2.677833         2.008419        -0.416766
 H         3.747874         0.105595        -1.932606
 H         4.421948        -2.748825        -0.935959
 H         5.002234        -2.571578         0.757416
 H         2.449535        -3.131100         0.309953
 H         2.531398        -1.574394         1.329431
 H         2.265001        -1.659156        -1.768181
