19
Iteration:  4261charge 0 multiplicity 1
 C        -0.063742         0.166934        -0.275076
 C         1.417708         0.010493        -0.121725
 O         2.138891         0.501182         0.939099
 C         2.606176         0.940878        -0.303826
 C         3.485437        -0.194946        -0.973000
 O         4.548468        -0.714930        -0.351109
 C         4.194881        -1.790930         0.492189
 C         2.828468        -2.317938         0.097760
 C         2.246597        -1.173142        -0.839923
 H        -0.468866        -0.307066        -1.227482
 H        -0.568112        -0.206837         0.616033
 H        -0.264460         1.272571        -0.276642
 H         2.729934         1.999399        -0.546678
 H         3.712370         0.081244        -2.030187
 H         5.050259        -2.524911         0.342979
 H         4.208142        -1.558714         1.568160
 H         2.872617        -3.194464        -0.644892
 H         2.187178        -2.557053         0.963154
 H         1.821596        -1.607298        -1.814896
