19
Iteration:  4776charge 0 multiplicity 1
 C        -0.075521         0.137274        -0.417048
 C         1.419089        -0.009522        -0.125564
 O         2.209184         0.655444         0.965599
 C         2.472148         0.916462        -0.395021
 C         3.434933        -0.202430        -0.993009
 O         4.601254        -0.663768        -0.314591
 C         4.317027        -1.977210         0.383244
 C         2.741942        -2.259200         0.205982
 C         2.243978        -1.176971        -0.635293
 H        -0.193294         0.197004        -1.543805
 H        -0.458410        -0.838553        -0.107399
 H        -0.611562         0.960913         0.144074
 H         2.646979         1.991477        -0.516942
 H         3.809303         0.044016        -2.008063
 H         4.835553        -2.711319        -0.196117
 H         4.561437        -2.046589         1.477312
 H         2.617082        -3.150555        -0.329407
 H         2.282870        -2.292637         1.213163
 H         1.766558        -1.480175        -1.550737
