19
Iteration:  1180
 C         0.011031         0.534436        -0.568042
 C         1.350374        -0.071539        -0.062483
 O         1.892544         0.252050         1.187578
 C         2.550334         0.794858         0.035020
 C         3.413232        -0.157863        -0.897486
 O         4.635385        -0.649388        -0.547320
 C         4.382591        -1.845562         0.287117
 C         2.948199        -2.378072         0.013579
 C         2.221805        -1.147307        -0.728639
 H        -1.010177         0.165253        -0.167614
 H         0.055752         1.497981        -0.088390
 H        -0.028800         0.701680        -1.674976
 H         2.482805         1.907249         0.029253
 H         3.514177         0.411524        -1.832070
 H         5.142895        -2.612426         0.040318
 H         4.598748        -1.497208         1.334708
 H         3.040631        -3.011360        -0.791391
 H         2.358142        -2.825905         0.843640
 H         1.726295        -1.469605        -1.605398
