19
Iteration:   987
 C        -0.079775         0.350390         0.018208
 C         1.380975         0.016925        -0.179628
 O         2.155078         0.696044         0.981522
 C         2.515806         0.901248        -0.446943
 C         3.455972        -0.207172        -0.802849
 O         4.462760        -0.586098         0.088577
 C         4.263647        -2.147192         0.213870
 C         2.931683        -2.532916        -0.452786
 C         2.292353        -1.128953        -0.853584
 H        -0.397391        -0.215569         0.922158
 H        -0.123758         1.396072         0.314957
 H        -0.864262         0.200137        -0.748419
 H         2.673758         1.967971        -0.753665
 H         3.824620        -0.008547        -1.832848
 H         5.247449        -2.637569        -0.092144
 H         4.100942        -2.352204         1.321976
 H         3.084672        -3.122912        -1.361934
 H         2.378695        -3.117801         0.357524
 H         1.921606        -1.215237        -1.918114
