19
Iteration:  2041
 C        -0.090362         0.132297        -0.262031
 C         1.409070         0.098178        -0.380889
 O         1.933477         0.312888         1.011863
 C         2.602984         0.938904        -0.033045
 C         3.547658        -0.079539        -0.783701
 O         4.607068        -0.670863        -0.114448
 C         4.291755        -2.102057        -0.065545
 C         2.722655        -2.072179         0.097833
 C         2.389246        -1.038318        -0.862545
 H        -0.377670        -0.886742         0.034969
 H        -0.564423         0.830127         0.435140
 H        -0.519934         0.097003        -1.240735
 H         3.040042         1.976351         0.162769
 H         3.736813         0.212094        -1.844771
 H         4.495382        -2.587059        -1.087830
 H         4.911857        -2.524092         0.713211
 H         2.225415        -3.048637        -0.058873
 H         2.583101        -1.858916         1.188117
 H         2.203954        -1.335318        -1.898961
