19
Iteration:  4397
 C        -0.076510         0.187187        -0.278967
 C         1.386254         0.028018        -0.131910
 O         2.182067         0.478950         0.975169
 C         2.559209         0.938776        -0.381370
 C         3.449498        -0.186753        -0.956401
 O         4.588919        -0.653606        -0.345506
 C         4.227749        -1.905382         0.470156
 C         2.836765        -2.314045         0.144173
 C         2.236052        -1.151922        -0.820592
 H        -0.252644        -0.008361        -1.340760
 H        -0.657409        -0.669752         0.229240
 H        -0.438478         1.224032        -0.181309
 H         2.665166         1.975339        -0.761784
 H         3.517766        -0.203720        -2.064574
 H         5.059868        -2.565021         0.131226
 H         4.493463        -1.644162         1.537570
 H         2.536211        -3.296921        -0.167946
 H         2.252215        -2.072484         1.117232
 H         1.927065        -1.420778        -1.837776
