19
Iteration:  3814charge 0 multiplicity 1
 C        -0.021425         0.277043        -0.259896
 C         1.416710        -0.011454        -0.200625
 O         1.991779         0.517095         1.041774
 C         2.542440         0.937496        -0.315508
 C         3.497274        -0.195152        -1.013949
 O         4.561905        -0.653677        -0.339128
 C         4.277061        -1.962364         0.413080
 C         2.801901        -2.306007         0.097129
 C         2.337103        -1.188757        -0.800803
 H        -0.513622         0.339238        -1.273467
 H        -0.435766        -0.676616         0.091010
 H        -0.303916         1.093384         0.447824
 H         2.706640         1.952914        -0.651286
 H         3.740274         0.077092        -2.045540
 H         5.162246        -2.543761         0.042235
 H         4.415496        -1.743433         1.482226
 H         2.804754        -3.330165        -0.418464
 H         2.296382        -2.288231         1.053168
 H         1.914950        -1.629500        -1.727676
