19
Iteration:  2295charge 0 multiplicity 1
 C        -0.034848         0.378814        -0.173548
 C         1.438021        -0.106143        -0.127907
 O         2.183277         0.414174         1.009166
 C         2.517475         0.946420        -0.288219
 C         3.457923        -0.127936        -0.926365
 O         4.391990        -0.594662         0.080187
 C         4.289757        -1.954444         0.152967
 C         2.887887        -2.378428        -0.251506
 C         2.253519        -1.191530        -0.885349
 H        -0.789070        -0.231193        -0.669364
 H        -0.387883         0.648682         0.871285
 H        -0.049443         1.295402        -0.834964
 H         2.615271         2.003142        -0.452721
 H         3.982937         0.032126        -1.913942
 H         5.095225        -2.522099        -0.448749
 H         4.697176        -2.110281         1.210729
 H         2.685299        -3.285206        -0.805598
 H         2.327269        -2.702630         0.738957
 H         1.760559        -1.370141        -1.836865
