19
Iteration:  3874charge 0 multiplicity 1
 C         0.027122         0.245469        -0.484031
 C         1.414699        -0.038902        -0.127342
 O         2.057876         0.475356         1.029489
 C         2.558740         0.920945        -0.226699
 C         3.417594        -0.185903        -0.924907
 O         4.545340        -0.556329        -0.166998
 C         4.342461        -2.016488         0.057641
 C         2.846667        -2.216771         0.260370
 C         2.164281        -1.239191        -0.749026
 H        -0.234555        -0.308845        -1.361258
 H        -0.649066        -0.049353         0.356591
 H        -0.113775         1.274009        -0.777537
 H         2.854690         1.971187        -0.398631
 H         3.559377         0.275978        -1.941363
 H         4.572391        -2.652093        -0.876524
 H         4.955551        -2.273424         0.972045
 H         2.761051        -3.295243         0.251788
 H         2.454771        -1.863030         1.259621
 H         1.788086        -1.738075        -1.670429
