19
Iteration:  3726
 C        -0.133337         0.213508        -0.083961
 C         1.416733        -0.034001        -0.176010
 O         2.165825         0.464112         0.919861
 C         2.567263         0.962187        -0.326639
 C         3.481718        -0.125275        -1.025433
 O         4.658841        -0.774207        -0.331325
 C         4.057992        -1.789682         0.615323
 C         2.872397        -2.322900        -0.073900
 C         2.309140        -1.121850        -0.927346
 H        -0.736471        -0.025453        -0.983263
 H        -0.494857        -0.446990         0.718370
 H        -0.286624         1.212511         0.340326
 H         2.796609         1.913219        -0.722421
 H         3.864953         0.089289        -1.998904
 H         4.824737        -2.580126         0.873924
 H         3.704004        -1.463225         1.605979
 H         3.093153        -3.178321        -0.845474
 H         2.236273        -2.794553         0.675192
 H         1.810746        -1.476002        -1.836721
