19
Iteration:  3317charge 0 multiplicity 1
 C        -0.129856         0.129857        -0.253763
 C         1.473997         0.128414        -0.215188
 O         2.060522         0.439436         1.024781
 C         2.657863         0.966784        -0.265338
 C         3.471205        -0.149362        -0.967401
 O         4.719475        -0.787294        -0.469395
 C         4.196373        -1.876045         0.402298
 C         2.694217        -2.265279         0.189054
 C         2.273088        -1.118684        -0.837639
 H        -0.391784        -0.395253        -1.161082
 H        -0.397959        -0.239871         0.729674
 H        -0.538709         1.138537        -0.347066
 H         2.760693         2.067759        -0.291201
 H         3.642934         0.308170        -1.929823
 H         4.785403        -2.782751         0.130872
 H         4.274473        -1.808010         1.544232
 H         2.730159        -3.295052        -0.289124
 H         2.109618        -2.199758         1.177211
 H         1.772410        -1.345530        -1.806161
