19
Iteration:  3347charge 0 multiplicity 1
 C        -0.038644         0.236517        -0.185033
 C         1.499154         0.009595        -0.158379
 O         2.306715         0.448345         0.946366
 C         2.564324         0.890919        -0.417742
 C         3.368417        -0.178107        -1.005941
 O         4.470403        -0.633539        -0.166511
 C         4.162366        -1.891294         0.441450
 C         2.827268        -2.324711         0.001505
 C         2.240175        -1.149803        -0.855650
 H        -0.489485        -0.333252        -1.050081
 H        -0.479770        -0.039239         0.731238
 H        -0.069966         1.308775        -0.243359
 H         2.517060         1.960851        -0.595272
 H         3.687458         0.128647        -2.006060
 H         4.989863        -2.572563         0.140893
 H         4.154358        -1.909921         1.518041
 H         2.764665        -3.205730        -0.626353
 H         2.183960        -2.485536         0.873055
 H         1.699569        -1.333663        -1.785352
