19
Iteration:  2334
 C        -0.127310         0.133280        -0.292400
 C         1.419137         0.014764        -0.265701
 O         2.086905         0.417535         0.988957
 C         2.633587         1.020451        -0.193038
 C         3.502441        -0.057568        -0.847724
 O         4.567450        -0.705998         0.029710
 C         4.292258        -2.043311        -0.084703
 C         2.741108        -2.210042         0.064832
 C         2.298860        -1.076160        -0.761665
 H        -0.535125        -0.654632        -0.959587
 H        -0.583355         0.142239         0.665239
 H        -0.341209         1.156406        -0.592527
 H         2.818246         2.073744        -0.060389
 H         3.769863        -0.015363        -1.892548
 H         4.589361        -2.464719        -1.045777
 H         4.787052        -2.767981         0.534789
 H         2.501875        -3.207825        -0.344965
 H         2.375038        -1.985722         1.011862
 H         1.891870        -1.362333        -1.759601
