19
Iteration:  4155charge 0 multiplicity 1
 C        -0.051819         0.417120        -0.191747
 C         1.373590        -0.091908        -0.215321
 O         2.223321         0.172343         0.974871
 C         2.544193         0.809981        -0.381673
 C         3.482647        -0.218628        -1.109027
 O         4.620540        -0.636810        -0.358621
 C         4.178614        -1.576636         0.659326
 C         2.796982        -2.188719         0.125062
 C         2.230693        -1.297374        -0.901315
 H        -0.470943         0.723619        -1.133954
 H        -0.728908        -0.396009         0.129075
 H        -0.216877         1.273647         0.474372
 H         2.582776         1.891570        -0.546108
 H         3.724795        -0.050923        -2.174698
 H         4.864630        -2.400741         0.635838
 H         3.919769        -1.059105         1.560073
 H         2.981641        -3.079774        -0.403465
 H         2.106092        -2.485197         0.944762
 H         1.947510        -1.572483        -1.899460
