19
Iteration:  3450charge 0 multiplicity 1
 C         0.036066        -0.015713        -0.192927
 C         1.483569         0.070069        -0.146092
 O         2.338483         0.470951         0.979341
 C         2.616983         1.055326        -0.327131
 C         3.495899        -0.173189        -1.143170
 O         4.491320        -0.858195        -0.446602
 C         4.006968        -1.682781         0.692578
 C         2.716302        -2.267269         0.051318
 C         2.238113        -1.119419        -0.851890
 H        -0.393312        -0.004097        -1.150839
 H        -0.307282        -0.993146         0.237549
 H        -0.338005         0.826833         0.374228
 H         2.612816         2.112277        -0.510564
 H         3.802391         0.048997        -2.153570
 H         4.840073        -2.379426         0.913697
 H         3.809166        -0.924868         1.526426
 H         3.064960        -3.192413        -0.471756
 H         1.869776        -2.743392         0.616283
 H         1.508317        -1.289070        -1.629809
