19
Iteration:   557
 C        -0.070462         0.317800        -0.223020
 C         1.379286         0.006609        -0.257498
 O         1.991131         0.329015         1.069626
 C         2.534774         1.000614        -0.105327
 C         3.489671        -0.115245        -0.853721
 O         4.658641        -0.784305        -0.364129
 C         4.251507        -1.908096         0.415271
 C         2.842257        -2.301833        -0.150043
 C         2.327645        -1.068753        -0.922749
 H        -0.551702        -0.523249         0.406295
 H        -0.088407         1.197118         0.519380
 H        -0.644902         0.594468        -1.165881
 H         2.449485         2.055331        -0.356489
 H         3.809820         0.203162        -1.846302
 H         4.993088        -2.816395         0.224939
 H         4.310119        -1.691661         1.501558
 H         3.005462        -3.122356        -0.892450
 H         2.245415        -2.821924         0.613306
 H         1.882373        -1.296199        -1.852773
