19
Iteration:  1931charge 0 multiplicity 1
 C        -0.092069         0.257974        -0.085309
 C         1.421751         0.003407        -0.170826
 O         2.120394         0.186446         1.053278
 C         2.513517         0.950000        -0.163697
 C         3.525822        -0.068165        -1.021018
 O         4.672844        -0.771478        -0.312435
 C         4.040277        -1.793011         0.558876
 C         2.849854        -2.293836        -0.237540
 C         2.336909        -1.057286        -1.023587
 H        -0.564130        -0.559745         0.445141
 H        -0.196891         1.251337         0.466463
 H        -0.483807         0.441649        -1.071322
 H         2.552218         2.028133        -0.241139
 H         3.881606         0.406092        -1.947138
 H         4.887993        -2.527394         0.836986
 H         3.679401        -1.225406         1.360889
 H         3.240966        -2.881685        -1.055367
 H         2.092992        -2.738235         0.407662
 H         1.933195        -1.167138        -2.063352
