19
Iteration:  1014
 C        -0.028989         0.231903         0.063723
 C         1.469389        -0.015209        -0.013459
 O         2.191578         0.678622         0.906355
 C         2.581689         1.023197        -0.441589
 C         3.461050        -0.191941        -0.952476
 O         4.322626        -0.660407         0.172088
 C         4.187356        -2.088091         0.211620
 C         2.914456        -2.474319        -0.407570
 C         2.320863        -1.091891        -0.909404
 H        -0.678477        -0.132752         0.894793
 H        -0.274829         1.361944         0.034854
 H        -0.416722        -0.106716        -0.920906
 H         2.460053         2.022073        -0.797289
 H         3.990079        -0.104533        -1.915388
 H         5.034667        -2.617816        -0.102799
 H         4.199821        -2.389273         1.284901
 H         3.328475        -2.862101        -1.355525
 H         2.421141        -3.233023         0.116489
 H         1.697509        -1.271366        -1.812181
