19
Iteration:  2896
 C        -0.050641         0.336155        -0.119221
 C         1.402136         0.053102        -0.145651
 O         2.242414         0.529399         0.937323
 C         2.560062         0.976181        -0.362869
 C         3.399969        -0.179503        -1.050396
 O         4.536326        -0.720606        -0.230707
 C         4.169137        -1.920653         0.558527
 C         2.873038        -2.451029        -0.155424
 C         2.245827        -1.201545        -0.792790
 H        -0.448876         0.195852         0.847920
 H        -0.370681         1.360570        -0.523999
 H        -0.535804        -0.422489        -0.736496
 H         2.549329         2.017069        -0.804469
 H         3.819046        -0.099298        -2.054676
 H         5.080347        -2.544995         0.404840
 H         4.036902        -1.676022         1.629495
 H         3.173269        -2.959061        -1.112157
 H         2.325014        -2.918105         0.681739
 H         1.583816        -1.573181        -1.547074
