19
Iteration:  4218charge 0 multiplicity 1
 C        -0.143822         0.058775        -0.301565
 C         1.459177         0.004899        -0.127552
 O         1.992426         0.670282         1.012173
 C         2.660626         1.001756        -0.318732
 C         3.465900        -0.169996        -0.996443
 O         4.605514        -0.907303        -0.410978
 C         4.265932        -1.885122         0.485775
 C         2.860164        -2.196859         0.064231
 C         2.290904        -1.136008        -0.776540
 H        -0.358628        -0.310114        -1.373968
 H        -0.656130        -0.542355         0.484307
 H        -0.616822         1.077829        -0.083783
 H         2.739567         2.107787        -0.370393
 H         3.836571         0.306189        -1.958304
 H         4.894634        -2.852103         0.364586
 H         4.368839        -1.459033         1.523793
 H         3.010710        -3.196980        -0.511122
 H         2.154251        -2.471676         0.872670
 H         1.618802        -1.323387        -1.645133
