19
Iteration:   642
 C         0.012636         0.376555        -0.303804
 C         1.393489        -0.048876        -0.120237
 O         2.074548         0.287876         1.088266
 C         2.614695         0.853867        -0.114070
 C         3.464384        -0.127196        -0.898051
 O         4.621422        -0.673520        -0.388324
 C         4.210962        -1.783975         0.430180
 C         2.780934        -2.360072        -0.151580
 C         2.204069        -1.113128        -0.862845
 H        -0.665644         0.241827         0.510181
 H        -0.085481         1.421758        -0.586957
 H        -0.353999        -0.200212        -1.160127
 H         2.758265         1.931424        -0.112918
 H         3.719938         0.266384        -1.908867
 H         5.038411        -2.564565         0.327698
 H         4.124188        -1.495991         1.424926
 H         3.012801        -3.164339        -0.929408
 H         2.196450        -2.813730         0.634383
 H         1.808433        -1.353957        -1.872879
