19
Iteration:  3549charge 0 multiplicity 1
 C         0.026540         0.351573        -0.553260
 C         1.368407        -0.014329        -0.081706
 O         1.977633         0.500168         1.124518
 C         2.632507         0.861104        -0.279281
 C         3.341078        -0.276194        -0.902095
 O         4.549843        -0.640986        -0.424820
 C         4.435116        -1.914944         0.229951
 C         2.886190        -2.240184         0.249844
 C         2.178437        -1.210843        -0.620999
 H         0.066562         0.178521        -1.582699
 H        -0.711947        -0.320925        -0.105928
 H        -0.338422         1.351318        -0.461552
 H         2.719003         1.940840        -0.431642
 H         3.367328         0.012104        -1.946482
 H         4.841072        -2.579251        -0.562971
 H         5.146165        -2.039966         1.078942
 H         2.658647        -3.218053        -0.260638
 H         2.530717        -2.315974         1.277010
 H         1.719239        -1.754539        -1.423193
