19
Iteration:  2145charge 0 multiplicity 1
 C        -0.035138         0.410486        -0.275872
 C         1.347444         0.000177        -0.156361
 O         2.027328         0.358813         1.034766
 C         2.477684         0.899589        -0.109754
 C         3.400690        -0.091685        -0.870628
 O         4.629097        -0.620683        -0.188774
 C         4.363020        -1.947241         0.238056
 C         2.876611        -2.426199        -0.140510
 C         2.278460        -1.197426        -0.862106
 H        -0.675794         0.058696         0.537782
 H        -0.080085         1.547187        -0.298076
 H        -0.387239         0.190080        -1.297004
 H         2.454523         1.963014        -0.126675
 H         3.652220         0.333740        -1.838190
 H         5.106143        -2.643659        -0.350634
 H         4.597338        -2.072133         1.339813
 H         2.881605        -3.154908        -0.964595
 H         2.378485        -2.763894         0.762798
 H         1.924976        -1.373096        -1.889424
