19
Iteration:   527
 C        -0.027813         0.407149        -0.310578
 C         1.453512        -0.056786        -0.000623
 O         2.280953         0.322468         1.105480
 C         2.551420         0.905639        -0.197217
 C         3.394416        -0.196094        -1.015093
 O         4.475765        -0.535370        -0.131064
 C         4.168733        -1.811322         0.407723
 C         2.886348        -2.475778        -0.323039
 C         2.213733        -1.178673        -0.910207
 H        -0.653462        -0.521483        -0.224071
 H        -0.292051         1.134964         0.514574
 H        -0.102483         0.934745        -1.249946
 H         2.539636         1.992066        -0.480896
 H         3.763754         0.036790        -2.033238
 H         5.048867        -2.423827         0.330291
 H         3.883793        -1.576224         1.511850
 H         3.097801        -3.171755        -1.129951
 H         2.242340        -3.082732         0.430015
 H         1.547298        -1.376500        -1.783464
