19
Iteration:   266charge 0 multiplicity 1
 C        -0.026415         0.086107        -0.202310
 C         1.450946         0.096362        -0.244245
 O         2.170522         0.151245         1.003512
 C         2.619728         1.003662        -0.083879
 C         3.532195         0.015089        -0.902773
 O         4.578470        -0.781061        -0.298542
 C         4.079440        -1.900061         0.469211
 C         2.695466        -2.178617        -0.134475
 C         2.329469        -0.950704        -1.020877
 H        -0.521983         1.035401        -0.082872
 H        -0.453568        -0.384917        -1.100263
 H        -0.323428        -0.496236         0.639769
 H         2.712151         2.063106         0.123153
 H         3.991975         0.397543        -1.825137
 H         4.782780        -2.691154         0.292488
 H         3.925936        -1.700912         1.591834
 H         2.689752        -3.028468        -0.693939
 H         1.876809        -2.333926         0.602911
 H         2.035358        -1.180520        -2.122710
