19
Iteration:  3333
 C        -0.063175         0.191982        -0.219676
 C         1.361474        -0.004507        -0.194595
 O         2.240888         0.474903         0.983410
 C         2.614598         0.975050        -0.267567
 C         3.499593        -0.184119        -1.012933
 O         4.545071        -0.716568        -0.304433
 C         4.246232        -1.927433         0.438665
 C         2.726306        -2.227994         0.031959
 C         2.231508        -1.120410        -0.820914
 H        -0.562619        -0.416860        -1.022850
 H        -0.621332        -0.236331         0.662037
 H        -0.473763         1.191836        -0.455382
 H         2.710755         2.047606        -0.425176
 H         3.810107        -0.092469        -2.095136
 H         4.933661        -2.727995         0.157334
 H         4.409526        -1.537935         1.422717
 H         2.674322        -3.209140        -0.442785
 H         2.132008        -2.350175         0.906379
 H         1.882436        -1.558037        -1.754538
