19
Iteration:  2772
 C        -0.042812         0.385919        -0.212663
 C         1.362673         0.023827        -0.149478
 O         2.150770         0.513372         1.030306
 C         2.589179         0.921139        -0.291730
 C         3.462928        -0.198822        -0.976288
 O         4.583925        -0.726447        -0.306639
 C         4.223187        -1.938442         0.428418
 C         2.891173        -2.400356        -0.101427
 C         2.148112        -1.160618        -0.739864
 H        -0.350371         1.215600        -0.921828
 H        -0.529241        -0.394452        -0.722852
 H        -0.526004         0.426945         0.763018
 H         2.667709         1.957209        -0.520093
 H         3.668168         0.044658        -2.066265
 H         5.016518        -2.712621         0.289521
 H         4.414235        -1.561923         1.488370
 H         3.136169        -3.101300        -0.929369
 H         2.204367        -3.002839         0.609147
 H         1.793942        -1.381408        -1.770607
