19
Iteration:  1900charge 0 multiplicity 1
 C         0.051422        -0.042649        -0.175505
 C         1.545744         0.086854        -0.269825
 O         2.216571         0.237234         1.078321
 C         2.733645         0.943782        -0.052908
 C         3.445219        -0.028156        -1.058610
 O         4.557090        -0.728662        -0.293444
 C         3.973824        -1.751649         0.491141
 C         2.682439        -2.188129        -0.102167
 C         2.229592        -1.004066        -1.057066
 H        -0.416788        -1.029599         0.086329
 H        -0.464947         0.638615         0.564617
 H        -0.395515        -0.005143        -1.147570
 H         3.061352         1.993452         0.027839
 H         3.863031         0.470863        -1.923075
 H         4.727726        -2.519817         0.660441
 H         3.690992        -1.402374         1.451343
 H         2.830111        -2.934470        -0.845436
 H         1.899923        -2.614841         0.512910
 H         1.754033        -1.256321        -1.972363
