19
Iteration:   130charge 0 multiplicity 1
 C        -0.118422         0.183092        -0.131027
 C         1.391557         0.090710        -0.384809
 O         1.963324         0.201786         0.973225
 C         2.668989         0.900224         0.079769
 C         3.558924        -0.032502        -0.875831
 O         4.742189        -0.749524        -0.413193
 C         4.131122        -1.811751         0.463842
 C         2.728570        -2.254990        -0.126050
 C         2.335232        -1.052518        -1.048773
 H        -0.305117         1.025520         0.457650
 H        -0.772280         0.142749        -0.959313
 H        -0.266042        -0.673302         0.502529
 H         2.990689         1.917161         0.301344
 H         3.895627         0.610843        -1.724198
 H         4.984038        -2.583739         0.484070
 H         3.936415        -1.418158         1.431053
 H         2.670743        -3.261196        -0.553024
 H         2.063827        -2.268740         0.679088
 H         2.027597        -1.331755        -2.042861
