19
Iteration:  2989
 C        -0.055571         0.263902        -0.294979
 C         1.493029         0.122937        -0.286940
 O         2.068917         0.161833         1.136107
 C         2.732292         0.832177        -0.190201
 C         3.422349        -0.278653        -1.091423
 O         4.620799        -0.871539        -0.611686
 C         4.245580        -1.616132         0.507608
 C         2.727212        -2.043396         0.284044
 C         2.208487        -1.100743        -0.907187
 H        -0.644705        -0.713229        -0.654657
 H        -0.376768         0.591693         0.728456
 H        -0.468778         1.083343        -0.966256
 H         3.118800         1.810031         0.217902
 H         3.490737         0.273028        -2.064068
 H         4.861030        -2.536625         0.401490
 H         4.234148        -1.287006         1.572236
 H         2.682345        -3.070024        -0.062584
 H         2.088941        -1.600669         1.069275
 H         1.568112        -1.700871        -1.622137
