19
Iteration:  1680charge 0 multiplicity 1
 C        -0.066392         0.303104        -0.451383
 C         1.394077         0.019817        -0.120410
 O         2.102441         0.254931         1.120490
 C         2.621959         0.945895        -0.176339
 C         3.448108        -0.079505        -0.911631
 O         4.591100        -0.604851        -0.124622
 C         4.316896        -2.014693         0.028964
 C         2.835201        -2.257526         0.124386
 C         2.157997        -1.122473        -0.847164
 H        -0.708541        -0.635291        -0.370228
 H        -0.614020         1.144791         0.110010
 H        -0.133540         0.843474        -1.411352
 H         2.526152         2.059473        -0.148564
 H         3.831352         0.284988        -1.874750
 H         4.785090        -2.633422        -0.771005
 H         4.759575        -2.261986         0.959823
 H         2.552997        -3.244351        -0.210295
 H         2.392839        -2.291574         1.098608
 H         1.882149        -1.534120        -1.783456
