19
Iteration:  2671
 C        -0.026822         0.154413        -0.321170
 C         1.389095         0.110115        -0.189786
 O         1.998164         0.338122         1.056821
 C         2.653055         0.969319        -0.044564
 C         3.568032        -0.024303        -0.849943
 O         4.666815        -0.888023        -0.511310
 C         4.219734        -1.961810         0.282168
 C         2.685149        -2.165180         0.078142
 C         2.256021        -1.030623        -0.875331
 H        -0.337835        -0.540373        -1.107061
 H        -0.400085        -0.226226         0.588597
 H        -0.555787         1.112895        -0.424668
 H         2.936965         2.031883         0.233245
 H         3.719885         0.361408        -1.905114
 H         4.887578        -2.789644        -0.132533
 H         4.466657        -1.787131         1.358579
 H         2.326493        -3.204436        -0.095379
 H         2.285472        -1.949118         1.042593
 H         1.964083        -1.169071        -1.971568
