19
Iteration:  4623
 C         0.000250         0.225475        -0.295974
 C         1.421618         0.063238        -0.218160
 O         2.015021         0.525287         1.028690
 C         2.583643         0.974124        -0.321374
 C         3.426554        -0.211844        -0.946707
 O         4.609236        -0.726665        -0.416017
 C         4.252979        -1.851633         0.469862
 C         2.877510        -2.310388         0.103538
 C         2.229300        -1.226437        -0.789115
 H        -0.316872        -0.306600        -1.254273
 H        -0.411250        -0.208429         0.640103
 H        -0.127610         1.396356        -0.255207
 H         2.520637         2.033042        -0.585596
 H         3.554974        -0.157112        -1.994191
 H         4.984529        -2.636909         0.306448
 H         4.326778        -1.614837         1.582379
 H         2.746077        -3.219996        -0.428977
 H         2.311378        -2.560142         1.042235
 H         1.784120        -1.777314        -1.609462
