19
Iteration:  1864
 C        -0.074840         0.003911        -0.197778
 C         1.424517        -0.026117        -0.215751
 O         2.183274         0.384499         1.015631
 C         2.605973         1.062053        -0.182328
 C         3.488777         0.046885        -0.885927
 O         4.626428        -0.760859        -0.237070
 C         4.123298        -1.984961         0.316758
 C         2.681090        -2.275069        -0.076668
 C         2.332150        -0.954258        -0.917512
 H        -0.436970        -0.937228         0.122017
 H        -0.388466         0.920726         0.319838
 H        -0.287447         0.288477        -1.229070
 H         2.567085         2.125628        -0.170899
 H         3.873385         0.383074        -1.874193
 H         4.846076        -2.855660         0.016273
 H         4.122559        -1.831190         1.377499
 H         2.669778        -3.134699        -0.748304
 H         2.078828        -2.351846         0.812216
 H         1.897269        -1.382963        -1.893358
