19
Iteration:  3055charge 0 multiplicity 1
 C         0.006204         0.319977        -0.201137
 C         1.462504        -0.008590        -0.066507
 O         2.210473         0.611706         0.944175
 C         2.615585         0.899263        -0.377638
 C         3.325135        -0.267656        -1.032269
 O         4.561175        -0.670426        -0.273006
 C         4.185535        -1.864466         0.519666
 C         2.889758        -2.418754        -0.150241
 C         2.120757        -1.242017        -0.666594
 H        -0.737635        -0.354147        -0.719273
 H        -0.333016         0.759597         0.795606
 H         0.014607         1.106062        -0.982700
 H         2.796179         1.974443        -0.693603
 H         3.634162        -0.239658        -2.114139
 H         4.905497        -2.669570         0.466088
 H         4.042675        -1.342743         1.461544
 H         3.210265        -3.062876        -0.974695
 H         2.206379        -3.006734         0.550225
 H         1.514937        -1.563987        -1.550688
