19
Iteration:  2317charge 0 multiplicity 1
 C        -0.011615         0.267819        -0.258080
 C         1.445200         0.037312        -0.166806
 O         2.163720         0.386758         1.013819
 C         2.565854         0.934805        -0.250277
 C         3.489350        -0.124916        -0.865051
 O         4.381632        -0.558584         0.057620
 C         4.287392        -2.058056        -0.011685
 C         2.778034        -2.339728        -0.019901
 C         2.284806        -1.113419        -0.904397
 H        -0.486104        -0.534810        -0.813992
 H        -0.394230         0.326315         0.811333
 H        -0.355027         1.207223        -0.761758
 H         2.449874         2.014690        -0.400226
 H         4.003303         0.320793        -1.762705
 H         4.918955        -2.459733        -0.872660
 H         4.962684        -2.447194         0.836273
 H         2.526110        -3.350991        -0.370513
 H         2.429064        -2.445674         1.091601
 H         2.008568        -1.451964        -1.896988
