19
Iteration:  2741
 C        -0.009727         0.545765        -0.356698
 C         1.370135        -0.052113        -0.128101
 O         2.117200         0.386165         1.108514
 C         2.578829         0.884538        -0.251292
 C         3.372011        -0.152640        -0.969255
 O         4.508954        -0.673666        -0.338360
 C         4.339456        -1.911286         0.318623
 C         2.910858        -2.397683         0.047412
 C         2.184238        -1.244193        -0.770076
 H         0.034033         1.298501        -1.179002
 H        -0.913110        -0.068617        -0.718265
 H        -0.453818         0.996879         0.537404
 H         2.659113         1.944496        -0.234348
 H         3.653493         0.112052        -2.009233
 H         5.004382        -2.616015        -0.164067
 H         4.720111        -1.770990         1.386284
 H         3.102879        -3.350106        -0.483398
 H         2.243748        -2.842505         0.892111
 H         1.840586        -1.505997        -1.755653
