19
Iteration:   380
 C        -0.052116         0.490194        -0.319319
 C         1.391293        -0.028769        -0.247464
 O         2.087770         0.267340         1.102474
 C         2.558896         0.920653        -0.097959
 C         3.410388        -0.148207        -0.897061
 O         4.607308        -0.626553        -0.325322
 C         4.275227        -1.905027         0.368137
 C         2.890837        -2.405536        -0.093619
 C         2.187361        -1.150641        -0.837302
 H        -0.431042         0.634128         0.765463
 H        -0.033623         1.431680        -0.925510
 H        -0.678357        -0.359869        -0.868009
 H         2.625150         2.025139        -0.246159
 H         3.755588         0.236471        -1.865009
 H         5.191390        -2.562360         0.023897
 H         4.340655        -1.767991         1.442954
 H         3.035408        -3.204945        -0.919394
 H         2.236221        -2.782402         0.686921
 H         1.755928        -1.508753        -1.753282
