19
Iteration:  2269
 C        -0.100832         0.342999        -0.111968
 C         1.404518         0.053485        -0.171284
 O         2.130463         0.425216         1.026576
 C         2.530914         0.995077        -0.279289
 C         3.412600        -0.136007        -0.934103
 O         4.590619        -0.630659        -0.072491
 C         4.239055        -2.008202         0.387131
 C         2.902600        -2.445555        -0.327834
 C         2.250775        -1.139510        -0.878946
 H        -0.516458        -0.589474        -0.496735
 H        -0.428578         0.636617         0.844701
 H        -0.516957         1.115989        -0.740950
 H         2.660955         2.082600        -0.446990
 H         3.767006         0.001243        -1.961771
 H         5.081862        -2.762791         0.063189
 H         4.458635        -2.010773         1.418715
 H         3.073575        -3.096613        -1.177445
 H         2.238179        -3.040616         0.225605
 H         1.831510        -1.320659        -1.910604
