19
Iteration:  1817
 C        -0.102274         0.443024        -0.327570
 C         1.364660        -0.063801        -0.155052
 O         2.129343         0.354393         1.038874
 C         2.498926         0.951140        -0.197523
 C         3.438166        -0.132862        -0.873398
 O         4.529489        -0.533887        -0.102850
 C         4.366504        -2.084696         0.150919
 C         2.906390        -2.412780        -0.077380
 C         2.263590        -1.164311        -0.786338
 H        -0.675719        -0.110933         0.388049
 H        -0.178695         1.478673        -0.133173
 H        -0.533457         0.351029        -1.378913
 H         2.446115         2.088322        -0.191421
 H         3.809781         0.269150        -1.849951
 H         4.976976        -2.488782        -0.677566
 H         4.699341        -2.375140         1.230543
 H         2.850720        -3.239507        -0.842234
 H         2.216645        -2.531452         0.792764
 H         1.878234        -1.329449        -1.828895
