19
Iteration:  4810
 C         0.011105         0.240689        -0.415833
 C         1.394189        -0.001386        -0.280125
 O         2.039347         0.478022         0.959007
 C         2.578339         0.889974        -0.253925
 C         3.369169        -0.206817        -0.952081
 O         4.539101        -0.665060        -0.356647
 C         4.372693        -1.955939         0.292971
 C         2.830094        -2.115053         0.332746
 C         2.265155        -1.256381        -0.707851
 H        -0.413549        -0.099214        -1.445236
 H        -0.632352        -0.283307         0.378581
 H        -0.313769         1.302732        -0.335519
 H         2.979991         1.956600        -0.233673
 H         3.659594         0.128650        -1.968103
 H         4.698743        -2.875118        -0.174003
 H         5.017469        -1.835181         1.228790
 H         2.470135        -3.152584         0.226030
 H         2.481598        -1.860817         1.337952
 H         1.807804        -1.757632        -1.572473
