19
Iteration:  2226charge 0 multiplicity 1
 C         0.035007        -0.000575        -0.186316
 C         1.528418         0.037520        -0.114671
 O         2.209797         0.346036         1.129027
 C         2.615856         1.037901        -0.122917
 C         3.536344        -0.087208        -0.932131
 O         4.645880        -0.776250        -0.418704
 C         3.909249        -1.716424         0.526021
 C         2.691491        -2.299104        -0.265646
 C         2.271160        -1.077223        -1.006428
 H        -0.366229        -1.020613        -0.228369
 H        -0.382412         0.547863         0.626607
 H        -0.303347         0.441008        -1.119411
 H         2.622904         2.147557        -0.004506
 H         3.763620         0.360273        -1.910519
 H         4.726407        -2.498136         0.920379
 H         3.491249        -1.194337         1.384650
 H         2.907176        -3.168404        -0.881742
 H         1.892598        -2.702946         0.344328
 H         1.782164        -1.100542        -1.996836
