19
Iteration:  1516
 C        -0.045155         0.326273        -0.193163
 C         1.407544        -0.087476        -0.256903
 O         2.060980         0.306119         0.989986
 C         2.489361         0.952664        -0.297194
 C         3.481598        -0.107347        -0.840412
 O         4.569407        -0.612807         0.033369
 C         4.278324        -2.024310         0.059075
 C         2.800677        -2.264817         0.025220
 C         2.336883        -1.072958        -0.905338
 H        -0.718511        -0.406102         0.254346
 H         0.061678         1.235071         0.342745
 H        -0.307093         0.703832        -1.172954
 H         2.537092         2.041986        -0.416967
 H         3.950109         0.036047        -1.825745
 H         4.576862        -2.444290        -0.937867
 H         4.861057        -2.430415         0.856357
 H         2.526376        -3.284934        -0.346618
 H         2.231398        -2.174952         0.947381
 H         2.064376        -1.365494        -1.881186
