19
Iteration:  2511charge 0 multiplicity 1
 C         0.029201        -0.038771        -0.191960
 C         1.530879         0.073024        -0.142054
 O         2.273302         0.540614         1.021344
 C         2.635323         1.009034        -0.297911
 C         3.511572        -0.132352        -0.926775
 O         4.564449        -0.771606        -0.314667
 C         4.015391        -1.899225         0.470301
 C         2.636148        -2.262794        -0.079770
 C         2.229534        -1.045458        -0.943505
 H        -0.334980         0.257656        -1.278975
 H        -0.163068        -1.133939        -0.096627
 H        -0.526116         0.633057         0.585456
 H         2.646484         2.125020        -0.482368
 H         3.830549         0.220232        -1.907157
 H         4.724978        -2.724974         0.293008
 H         3.987433        -1.708313         1.577581
 H         2.598932        -3.323887        -0.377561
 H         1.989078        -2.351817         0.901724
 H         1.659171        -1.062548        -1.908412
