19
Iteration:  3703charge 0 multiplicity 1
 C        -0.008400         0.245639        -0.193963
 C         1.421773         0.054761        -0.142228
 O         2.139613         0.553447         0.983809
 C         2.508977         0.910139        -0.381066
 C         3.452071        -0.224833        -0.972916
 O         4.528821        -0.647972        -0.215199
 C         4.261012        -1.864269         0.452154
 C         2.837316        -2.436640        -0.133637
 C         2.212703        -1.163718        -0.762028
 H        -0.468024        -0.165474        -1.108502
 H        -0.498904        -0.207736         0.715133
 H        -0.132467         1.323364        -0.072614
 H         2.619502         1.914173        -0.809035
 H         3.844084        -0.120609        -1.982803
 H         5.146860        -2.530306         0.334600
 H         4.154816        -1.739555         1.553626
 H         3.147083        -3.293723        -0.859120
 H         2.200589        -2.936874         0.613882
 H         1.925858        -1.305723        -1.799323
