19
Iteration:  2774
 C        -0.053779         0.364269        -0.213641
 C         1.381905         0.018721        -0.138039
 O         2.156129         0.516663         1.028883
 C         2.575094         0.939018        -0.299219
 C         3.481098        -0.193524        -0.970557
 O         4.574782        -0.746465        -0.315466
 C         4.213293        -1.931636         0.448919
 C         2.884221        -2.395801        -0.097470
 C         2.152848        -1.149646        -0.761378
 H        -0.304911         1.239235        -0.850899
 H        -0.588623        -0.474936        -0.742456
 H        -0.469618         0.417943         0.793526
 H         2.695375         1.976519        -0.554095
 H         3.701934         0.055087        -2.033868
 H         4.954087        -2.708872         0.242298
 H         4.410557        -1.567018         1.492260
 H         3.181433        -3.030905        -0.975095
 H         2.202398        -2.994806         0.616504
 H         1.770069        -1.380325        -1.745209
