19
Iteration:  2817
 C         0.040354        -0.035317        -0.014666
 C         1.518047         0.077338        -0.219140
 O         2.291382         0.465795         0.994204
 C         2.725166         0.954481        -0.346624
 C         3.538376        -0.162275        -1.044592
 O         4.603359        -0.765838        -0.307450
 C         3.873424        -1.687550         0.566927
 C         2.592697        -2.281859        -0.117941
 C         2.235542        -1.092621        -0.984626
 H        -0.535085         0.886104         0.063721
 H        -0.549431        -0.524753        -0.807168
 H        -0.050594        -0.565514         0.918096
 H         2.719309         2.034503        -0.343998
 H         3.986950         0.200277        -2.001889
 H         4.650058        -2.417152         0.776748
 H         3.554441        -1.251863         1.574310
 H         2.956544        -3.107712        -0.753515
 H         1.891538        -2.775625         0.668299
 H         1.652010        -1.270795        -1.887934
