19
Iteration:  2242charge 0 multiplicity 1
 C        -0.042833         0.120329        -0.144420
 C         1.458896        -0.025541        -0.147546
 O         2.127947         0.462297         1.071253
 C         2.634850         0.915010        -0.165924
 C         3.515155        -0.030812        -0.924571
 O         4.595353        -0.775149        -0.348221
 C         4.010185        -1.858768         0.470685
 C         2.795770        -2.380964        -0.298028
 C         2.338797        -1.000717        -0.868404
 H        -0.380224        -0.914598        -0.337488
 H        -0.429111         0.598647         0.824080
 H        -0.520429         0.817071        -0.883966
 H         2.621244         1.951557        -0.464053
 H         3.824298         0.321774        -1.924669
 H         4.774861        -2.536720         0.678772
 H         3.833195        -1.410641         1.478827
 H         3.086151        -3.023314        -1.187154
 H         1.994070        -2.919604         0.356344
 H         1.962180        -1.072301        -1.892404
