19
Iteration:  1976
 C        -0.012600         0.384081        -0.330637
 C         1.446542         0.040494        -0.115216
 O         2.081581         0.317728         1.117066
 C         2.566636         0.968286        -0.145795
 C         3.429008        -0.105049        -0.926138
 O         4.495311        -0.570243        -0.179471
 C         4.285386        -1.947401         0.244070
 C         2.946601        -2.483986        -0.247280
 C         2.179888        -1.169820        -0.777081
 H        -0.662009        -0.288116         0.277715
 H        -0.312319         1.453085        -0.137126
 H        -0.214836         0.146898        -1.374619
 H         2.599980         2.037518         0.171872
 H         3.708273         0.047809        -1.972892
 H         5.186601        -2.536055        -0.198587
 H         4.217054        -1.923209         1.319574
 H         2.961058        -3.073347        -1.133526
 H         2.375337        -2.877589         0.598223
 H         1.674334        -1.514041        -1.688216
