19
Iteration:  3548charge 0 multiplicity 1
 C         0.019622         0.361263        -0.548070
 C         1.364262        -0.013050        -0.086996
 O         1.977152         0.499619         1.128949
 C         2.630727         0.851867        -0.283826
 C         3.336297        -0.283858        -0.906242
 O         4.553584        -0.639212        -0.423044
 C         4.432112        -1.912617         0.225455
 C         2.896004        -2.238138         0.250065
 C         2.193687        -1.209467        -0.626229
 H         0.070188         0.177446        -1.585652
 H        -0.742336        -0.310198        -0.095800
 H        -0.330078         1.380963        -0.468594
 H         2.689136         1.914842        -0.412166
 H         3.365628         0.024067        -1.936637
 H         4.846516        -2.608443        -0.531044
 H         5.113236        -2.034032         1.106291
 H         2.683023        -3.223965        -0.255263
 H         2.508121        -2.335797         1.295332
 H         1.690315        -1.748100        -1.416108
