19
Iteration:  3992charge 0 multiplicity 1
 C        -0.069671         0.265851        -0.299184
 C         1.384711         0.013200        -0.191493
 O         2.196161         0.386314         0.979984
 C         2.588833         0.838590        -0.376997
 C         3.443002        -0.193062        -1.052983
 O         4.476393        -0.521809        -0.116943
 C         4.310639        -1.865507         0.294454
 C         2.779344        -2.251119         0.186959
 C         2.274970        -1.293459        -0.827104
 H        -0.240570         0.410626        -1.367534
 H        -0.646187        -0.599563         0.049744
 H        -0.428125         1.186800         0.205991
 H         2.753530         1.922107        -0.593155
 H         3.950008         0.169482        -1.935019
 H         4.902095        -2.548951        -0.333508
 H         4.697708        -1.809029         1.359799
 H         2.707336        -3.272559        -0.138746
 H         2.150525        -2.183507         1.127163
 H         1.713407        -1.609057        -1.706963
