19
Iteration:  3205charge 0 multiplicity 1
 C        -0.071518         0.439240        -0.243425
 C         1.395433        -0.013766        -0.130724
 O         2.133259         0.449187         0.948056
 C         2.564518         0.846895        -0.384587
 C         3.436015        -0.287937        -1.014249
 O         4.663982        -0.762017        -0.510690
 C         4.188394        -1.717272         0.650801
 C         2.855238        -2.315783         0.082638
 C         2.163931        -1.275094        -0.766059
 H        -0.217465         0.924106        -1.257230
 H        -0.816497        -0.335314        -0.126471
 H        -0.208207         1.113185         0.583401
 H         2.683872         1.946938        -0.349576
 H         3.702510         0.029264        -2.018982
 H         5.103306        -2.376964         0.718897
 H         4.099356        -1.283396         1.671747
 H         3.330929        -3.112687        -0.575062
 H         2.420420        -2.771634         0.972262
 H         1.625021        -1.580123        -1.684575
