19
Iteration:  4972
 C        -0.098819         0.121839        -0.206684
 C         1.435932        -0.053030        -0.259254
 O         2.239849         0.510920         0.850716
 C         2.590036         0.925202        -0.450262
 C         3.520665        -0.196283        -1.014946
 O         4.457162        -0.563673        -0.043071
 C         4.275791        -1.963436         0.313478
 C         2.682489        -2.187244         0.202182
 C         2.299761        -1.224504        -0.816081
 H        -0.553262         0.410982        -1.193817
 H        -0.571385        -0.614941         0.330592
 H        -0.137530         0.984877         0.440159
 H         2.352982         2.020607        -0.721001
 H         3.887196        -0.001962        -2.040691
 H         4.796970        -2.596841        -0.419624
 H         4.729459        -2.210711         1.324652
 H         2.402307        -3.212371         0.077369
 H         2.343406        -1.861731         1.183605
 H         1.992535        -1.469290        -1.848613
