19
Iteration:  1446
 C        -0.077540         0.265947        -0.544159
 C         1.347762        -0.008291        -0.065966
 O         1.939233         0.438985         1.190120
 C         2.518559         0.936482         0.000641
 C         3.472717        -0.045039        -0.778345
 O         4.663756        -0.703226        -0.353705
 C         4.366435        -2.090813         0.013684
 C         2.850902        -2.282112         0.031551
 C         2.321432        -1.116703        -0.787110
 H        -0.859387        -0.507936        -0.399450
 H        -0.184905         1.217832         0.068589
 H         0.025542         0.756594        -1.575201
 H         2.421967         2.034704        -0.065120
 H         3.683285         0.476427        -1.737536
 H         4.786612        -2.701029        -0.848310
 H         4.747360        -2.458637         0.970269
 H         2.521508        -3.294635        -0.129540
 H         2.452775        -2.220392         1.055840
 H         2.015353        -1.320507        -1.877412
