19
Iteration:  2595
 C         0.042772         0.440190        -0.020567
 C         1.408807        -0.065690        -0.167646
 O         2.301223         0.348457         0.960886
 C         2.477039         0.879892        -0.334607
 C         3.415442        -0.184205        -0.956124
 O         4.495005        -0.662681        -0.075674
 C         4.096760        -1.871017         0.490212
 C         2.895729        -2.358888        -0.327027
 C         2.259665        -1.180789        -0.990414
 H        -0.683894        -0.213255        -0.507287
 H        -0.217837         0.503349         0.994731
 H        -0.217811         1.452479        -0.405245
 H         2.458307         2.004358        -0.509516
 H         3.882351         0.320055        -1.851814
 H         5.018715        -2.499281         0.565885
 H         3.647844        -1.616069         1.472599
 H         3.238343        -2.942980        -1.265824
 H         2.219830        -2.964806         0.232502
 H         1.628441        -1.268299        -1.935650
