19
Iteration:   581charge 0 multiplicity 1
 C        -0.080115         0.126733        -0.262955
 C         1.395895         0.089490        -0.262831
 O         1.929654         0.253549         1.070100
 C         2.728463         0.932609         0.011073
 C         3.559782        -0.063702        -0.846290
 O         4.694385        -0.797451        -0.523728
 C         4.125651        -1.880745         0.370313
 C         2.751587        -2.191355        -0.012887
 C         2.311483        -0.994187        -0.960606
 H        -0.390887        -0.491480         0.673679
 H        -0.464275         1.189186        -0.075366
 H        -0.397502        -0.220504        -1.262473
 H         3.062694         1.997090         0.138270
 H         3.797321         0.449315        -1.794702
 H         4.836329        -2.738830         0.343717
 H         4.197364        -1.445788         1.447723
 H         2.527911        -3.193154        -0.337517
 H         2.117086        -2.178342         0.947073
 H         2.079539        -1.228248        -1.986688
