19
Iteration:  3658
 C        -0.054654         0.267698        -0.327910
 C         1.470956        -0.003585        -0.123771
 O         2.184685         0.526558         1.020827
 C         2.536878         0.850048        -0.472621
 C         3.415253        -0.234586        -0.919932
 O         4.509419        -0.538181        -0.028171
 C         4.310437        -2.020576         0.154592
 C         2.792292        -2.298673         0.047835
 C         2.245405        -1.130552        -0.750389
 H        -0.327657        -0.129229        -1.299099
 H        -0.594384        -0.384948         0.470299
 H        -0.443967         1.288925        -0.211373
 H         2.322311         1.955787        -0.540213
 H         3.689963        -0.106908        -1.961096
 H         5.003509        -2.548881        -0.510533
 H         4.808007        -2.127827         1.142107
 H         2.564113        -3.381450        -0.368757
 H         2.323879        -2.369762         1.060404
 H         1.815410        -1.486100        -1.671793
