19
Iteration:  2156
 C        -0.040300         0.372217        -0.186284
 C         1.395190        -0.080916        -0.210079
 O         1.992647         0.303041         1.099650
 C         2.523482         0.943414        -0.181918
 C         3.435873        -0.107205        -0.861385
 O         4.577974        -0.623666        -0.251557
 C         4.292790        -1.980243         0.315309
 C         2.851473        -2.280694        -0.094353
 C         2.353167        -1.092067        -1.018458
 H        -0.627767        -0.075490         0.624792
 H        -0.033645         1.508417        -0.149781
 H        -0.582307        -0.029430        -1.065710
 H         2.683805         1.995942        -0.199694
 H         3.724465         0.220150        -1.859406
 H         4.954283        -2.783601        -0.147251
 H         4.501962        -1.984685         1.432738
 H         3.026330        -3.202192        -0.680219
 H         2.196956        -2.727268         0.648785
 H         2.143862        -1.415194        -2.046929
