19
Iteration:   888charge 0 multiplicity 1
 C        -0.104445         0.306106        -0.301986
 C         1.350831         0.012407        -0.255601
 O         1.973975         0.222973         1.073147
 C         2.663692         0.908938         0.059186
 C         3.515651        -0.050635        -0.857870
 O         4.685560        -0.886969        -0.633076
 C         4.293514        -1.783061         0.413079
 C         2.782349        -2.232178         0.074141
 C         2.255280        -1.059978        -0.923127
 H        -0.762457        -0.606505        -0.266763
 H        -0.318106         1.057468         0.409278
 H        -0.514106         0.794130        -1.216466
 H         2.971987         1.964561         0.096842
 H         3.683969         0.587973        -1.729437
 H         4.907490        -2.661767         0.371910
 H         4.394128        -1.198733         1.342610
 H         2.809474        -3.205121        -0.359278
 H         2.098155        -2.307594         1.011594
 H         1.959087        -1.364982        -1.928835
