19
Iteration:  1800
 C        -0.009145         0.417458        -0.368170
 C         1.349012        -0.036401        -0.117343
 O         2.173793         0.307895         1.105072
 C         2.447819         0.891732        -0.178957
 C         3.428266        -0.046500        -0.872121
 O         4.472720        -0.626755        -0.037527
 C         4.396331        -1.948089         0.030047
 C         2.827384        -2.367348        -0.034166
 C         2.292990        -1.190493        -0.835804
 H        -0.947162         0.212638         0.232477
 H        -0.041237         1.576422        -0.487683
 H        -0.268471         0.226981        -1.425890
 H         2.345616         1.913865        -0.467096
 H         3.674583         0.169947        -1.914163
 H         4.885888        -2.543493        -0.782667
 H         4.870235        -2.166360         0.924976
 H         2.585362        -3.326704        -0.458622
 H         2.599433        -2.498851         1.011127
 H         2.020629        -1.440599        -1.898127
