19
Iteration:  1162
 C         0.187007         0.627904        -0.493684
 C         1.419708        -0.057225        -0.097683
 O         1.914303         0.182631         1.186872
 C         2.522200         0.875989         0.020429
 C         3.205710        -0.129785        -0.875957
 O         4.588149        -0.690262        -0.557107
 C         4.354343        -1.735324         0.405774
 C         3.044199        -2.371987        -0.078084
 C         2.159820        -1.302785        -0.764787
 H        -0.616172        -0.057697        -0.526947
 H        -0.119663         1.588331        -0.010468
 H         0.316036         0.823034        -1.548901
 H         2.650262         1.921536        -0.041556
 H         3.230774         0.229482        -1.928410
 H         5.195075        -2.412766         0.125848
 H         4.112507        -1.394515         1.374088
 H         3.098682        -3.357553        -0.759633
 H         2.535159        -2.835013         0.878286
 H         1.698422        -1.606046        -1.747868
