19
Iteration:  2712charge 0 multiplicity 1
 C        -0.035743         0.386258        -0.387671
 C         1.452343        -0.047694        -0.163036
 O         2.063073         0.229849         1.114888
 C         2.621152         0.898078        -0.182675
 C         3.450175        -0.099911        -0.913202
 O         4.639481        -0.694144        -0.442670
 C         4.280054        -1.899561         0.251905
 C         2.722195        -2.223097         0.158934
 C         2.192895        -1.163000        -0.819119
 H        -0.075767         0.860459        -1.345504
 H        -0.887301        -0.373028        -0.227358
 H        -0.221478         1.241540         0.287914
 H         2.695957         1.999680         0.011165
 H         3.676520         0.187156        -1.930225
 H         4.896827        -2.735506        -0.156810
 H         4.471140        -1.734835         1.286001
 H         2.611522        -3.309888         0.038514
 H         2.328233        -1.874767         1.066781
 H         1.930526        -1.386020        -1.853762
