19
Iteration:  3204
 C        -0.072706         0.432667        -0.239723
 C         1.399249        -0.008538        -0.140124
 O         2.134223         0.450828         0.948867
 C         2.564671         0.845014        -0.381132
 C         3.434958        -0.283535        -1.021213
 O         4.662036        -0.766948        -0.504249
 C         4.186713        -1.723577         0.650562
 C         2.850640        -2.312253         0.080584
 C         2.166474        -1.272656        -0.767728
 H        -0.227076         0.933816        -1.256678
 H        -0.771862        -0.395990        -0.065015
 H        -0.220655         1.123352         0.595450
 H         2.701084         1.944985        -0.391138
 H         3.716442         0.054108        -2.032507
 H         5.104879        -2.378108         0.743842
 H         4.079259        -1.257507         1.662359
 H         3.360969        -3.077248        -0.564983
 H         2.409675        -2.765232         0.953678
 H         1.610077        -1.586585        -1.668800
