19
Iteration:  3504
 C        -0.020504         0.411156        -0.273035
 C         1.340479        -0.014706        -0.286124
 O         2.010138         0.290133         0.960088
 C         2.525791         0.854603        -0.261359
 C         3.407150        -0.204143        -0.995470
 O         4.621177        -0.719180        -0.429019
 C         4.314976        -1.819792         0.405573
 C         2.860981        -2.159708         0.287080
 C         2.288565        -1.241373        -0.787750
 H        -0.565408         0.318062        -1.154036
 H        -0.516613         0.036340         0.636992
 H        -0.024457         1.479321        -0.093697
 H         2.663402         1.872038        -0.519762
 H         3.545282         0.013461        -2.039174
 H         5.025001        -2.619177         0.185791
 H         4.648469        -1.459852         1.414337
 H         2.906542        -3.156959        -0.210887
 H         2.311113        -2.190959         1.257877
 H         2.154146        -1.678646        -1.773521
