19
Iteration:  3850charge 0 multiplicity 1
 C        -0.104093         0.331141        -0.478909
 C         1.372123         0.030177        -0.175437
 O         2.079130         0.460800         1.026824
 C         2.503371         0.914094        -0.301330
 C         3.428758        -0.174985        -0.907815
 O         4.542503        -0.621407        -0.265491
 C         4.442549        -2.044151         0.165255
 C         2.881028        -2.306226         0.192114
 C         2.267187        -1.175680        -0.577952
 H        -0.440082        -0.010695        -1.456003
 H        -0.636426        -0.142534         0.318832
 H        -0.336958         1.413794        -0.428002
 H         2.446982         2.082067        -0.411401
 H         3.486177         0.101338        -1.994714
 H         4.955833        -2.883670        -0.374157
 H         4.778914        -1.870046         1.225975
 H         2.751374        -3.254795        -0.343372
 H         2.345788        -2.483362         1.177102
 H         2.073915        -1.600633        -1.604041
