19
Iteration:  4619
 C        -0.004192         0.259564        -0.320182
 C         1.444411         0.048944        -0.205454
 O         2.023562         0.511249         1.014815
 C         2.576713         0.995874        -0.299119
 C         3.412402        -0.223020        -0.986867
 O         4.586191        -0.677771        -0.401457
 C         4.282581        -1.893190         0.458849
 C         2.844559        -2.309251         0.129611
 C         2.262213        -1.272731        -0.751703
 H        -0.289385        -0.239258        -1.225687
 H        -0.469864        -0.195601         0.563382
 H        -0.220742         1.317955        -0.249092
 H         2.485464         2.083991        -0.520860
 H         3.590869        -0.105259        -2.119060
 H         4.929314        -2.776627         0.281702
 H         4.420457        -1.574266         1.476664
 H         2.826780        -3.295501        -0.414568
 H         2.270482        -2.432638         1.013038
 H         1.739848        -1.716598        -1.647781
