19
Iteration:  2735
 C         0.020811         0.565073        -0.355271
 C         1.390508        -0.055168        -0.151839
 O         2.116806         0.363150         1.077337
 C         2.518685         0.830530        -0.189093
 C         3.344407        -0.133358        -1.006076
 O         4.525731        -0.681972        -0.355248
 C         4.361935        -1.946657         0.335198
 C         2.885059        -2.341866         0.095329
 C         2.211951        -1.205624        -0.767392
 H         0.087008         1.247464        -1.190549
 H        -0.617691        -0.300307        -0.619195
 H        -0.442177         1.121779         0.478804
 H         2.355161         1.949267        -0.179554
 H         3.583158         0.144862        -2.036832
 H         4.989584        -2.704369        -0.213025
 H         4.596391        -1.903713         1.376419
 H         3.035592        -3.201090        -0.576624
 H         2.309091        -2.587666         0.931130
 H         1.883559        -1.554456        -1.772812
