19
Iteration:  2430charge 0 multiplicity 1
 C         0.081716         0.575148        -0.485314
 C         1.377514        -0.035225        -0.150798
 O         1.999879         0.225395         1.061412
 C         2.554755         0.853246        -0.169610
 C         3.353357        -0.133805        -0.920288
 O         4.573114        -0.616205        -0.315900
 C         4.454918        -1.943402         0.137478
 C         2.803095        -2.236607         0.278844
 C         2.151143        -1.291030        -0.740905
 H         0.283590         1.347173        -1.286773
 H        -0.602472        -0.209196        -0.963351
 H        -0.423719         0.967759         0.382373
 H         2.493525         1.913582        -0.230057
 H         3.537486         0.262059        -1.954927
 H         4.833007        -2.642500        -0.609046
 H         5.085646        -2.184923         0.992316
 H         2.633523        -3.378160         0.088670
 H         2.638221        -1.942480         1.278916
 H         1.890666        -1.677269        -1.735732
