19
Iteration:  1070
 C        -0.031204         0.025248        -0.079987
 C         1.462783         0.026556        -0.202572
 O         2.161854         0.332203         0.993577
 C         2.635876         0.979345        -0.280035
 C         3.561228        -0.055288        -0.952737
 O         4.577150        -0.758385        -0.197655
 C         4.139710        -1.919948         0.396839
 C         2.611710        -2.187882        -0.164345
 C         2.330016        -0.934291        -0.966569
 H        -0.205514        -0.862694         0.600078
 H        -0.464185         0.940771         0.342621
 H        -0.455985        -0.284119        -1.050810
 H         2.652348         2.082837        -0.261117
 H         3.988189         0.310007        -1.893434
 H         4.790657        -2.701188         0.076686
 H         4.091515        -1.765375         1.483529
 H         2.415253        -3.134065        -0.604108
 H         1.937680        -2.182934         0.717446
 H         1.775330        -1.118508        -1.879623
