19
Iteration:  4276charge 0 multiplicity 1
 C        -0.042226         0.304998        -0.226209
 C         1.417836        -0.022129        -0.225155
 O         2.238798         0.361983         1.047042
 C         2.561636         0.839344        -0.424900
 C         3.363469        -0.216739        -1.079529
 O         4.580858        -0.638670        -0.270931
 C         4.242869        -1.767381         0.595098
 C         2.802840        -2.262712         0.014189
 C         2.215395        -1.165747        -0.855935
 H        -0.437866        -0.149561        -1.167666
 H        -0.599865        -0.457996         0.450970
 H        -0.346389         1.357491        -0.350343
 H         2.469543         1.914882        -0.455014
 H         3.797317        -0.041168        -2.082542
 H         4.966272        -2.631887         0.553390
 H         4.293816        -1.365352         1.649821
 H         3.061184        -3.194489        -0.390097
 H         2.076528        -2.367585         0.880358
 H         1.731693        -1.482114        -1.802790
