19
Iteration:  1384
 C        -0.035528         0.164943        -0.390203
 C         1.418231         0.096307        -0.235659
 O         2.068785         0.199996         1.111579
 C         2.588821         0.912851        -0.034916
 C         3.520281        -0.028963        -0.869982
 O         4.582964        -0.653879        -0.150147
 C         4.223826        -2.075728        -0.016754
 C         2.753518        -2.100121         0.107891
 C         2.291158        -1.014061        -0.894774
 H        -0.595951        -0.321698         0.397344
 H        -0.392740         1.149750        -0.497946
 H        -0.426937        -0.341364        -1.293485
 H         2.575659         1.998629         0.031118
 H         3.910863         0.409235        -1.810761
 H         4.676144        -2.640740        -0.856978
 H         4.780078        -2.496721         0.844271
 H         2.343072        -3.184114        -0.097368
 H         2.429206        -1.761953         1.092144
 H         2.012889        -1.342621        -1.891497
