19
Iteration:  2729charge 0 multiplicity 1
 C         0.038066         0.536287        -0.365374
 C         1.382748        -0.031557        -0.136015
 O         2.113267         0.311671         1.050408
 C         2.481092         0.857827        -0.136567
 C         3.353694        -0.173253        -0.986891
 O         4.563242        -0.672548        -0.375808
 C         4.351240        -1.960721         0.315407
 C         2.852899        -2.288430         0.097447
 C         2.255690        -1.177495        -0.786826
 H         0.076435         1.203122        -1.282028
 H        -0.532009        -0.370540        -0.553445
 H        -0.282069         1.138699         0.489784
 H         2.304643         1.883308        -0.355479
 H         3.488801         0.198659        -2.040567
 H         5.037122        -2.693644        -0.110049
 H         4.553335        -1.906929         1.449655
 H         2.692219        -3.142529        -0.597625
 H         2.330438        -2.381478         1.137698
 H         1.785104        -1.641919        -1.666890
