19
Iteration:  2808charge 0 multiplicity 1
 C         0.011366         0.055163        -0.049483
 C         1.506536         0.046940        -0.180279
 O         2.261906         0.508807         0.992038
 C         2.614090         0.955443        -0.302690
 C         3.605313        -0.149760        -1.000193
 O         4.595519        -0.764592        -0.360903
 C         3.907922        -1.745943         0.550390
 C         2.670381        -2.365402        -0.114790
 C         2.226403        -1.061268        -0.959348
 H        -0.438873         1.021299        -0.070263
 H        -0.301190        -0.805354        -0.796030
 H        -0.208261        -0.373025         0.939595
 H         2.811469         2.041155        -0.516118
 H         3.939846         0.095689        -2.017946
 H         4.572529        -2.581632         0.703203
 H         3.663282        -1.206440         1.519646
 H         2.880985        -3.303001        -0.738833
 H         1.943177        -2.722758         0.750754
 H         1.785792        -1.219824        -1.926954
