19
Iteration:  3234
 C         0.079497         0.575341        -0.458074
 C         1.397675        -0.005122        -0.152501
 O         2.136438         0.368672         1.054734
 C         2.541469         0.783230        -0.252654
 C         3.310609        -0.264609        -1.018398
 O         4.507978        -0.677244        -0.537852
 C         4.311967        -1.763435         0.497757
 C         2.920422        -2.303480         0.235832
 C         2.200660        -1.344217        -0.722226
 H        -0.222790         1.055374        -1.408101
 H        -0.699818        -0.282121        -0.641693
 H        -0.271106         1.080363         0.490497
 H         2.418982         1.871818        -0.352523
 H         3.517752         0.270728        -2.007859
 H         5.236085        -2.364867         0.331854
 H         4.290939        -1.471506         1.562751
 H         2.962320        -3.305316        -0.247818
 H         2.555880        -2.558084         1.222068
 H         1.616725        -1.827609        -1.506479
