19
Iteration:   838
 C         0.112652         0.503178        -0.464313
 C         1.392282        -0.073120        -0.061956
 O         2.242823         0.283590         1.151087
 C         2.562406         0.821254        -0.051117
 C         3.306915        -0.148855        -0.967390
 O         4.466412        -0.517003        -0.390559
 C         4.154952        -1.807371         0.401351
 C         2.924878        -2.434141        -0.106539
 C         2.227625        -1.289818        -0.773779
 H        -0.750881        -0.148884        -0.197495
 H        -0.117801         1.535919        -0.036065
 H         0.012041         0.654106        -1.553731
 H         2.609115         1.950415        -0.138202
 H         3.208580         0.247461        -2.009996
 H         5.028924        -2.475115         0.254820
 H         4.030722        -1.464917         1.468853
 H         3.187160        -2.991983        -1.099825
 H         2.434624        -3.157335         0.461723
 H         1.693891        -1.603874        -1.745988
