19
Iteration:  3675charge 0 multiplicity 1
 C        -0.043486         0.224926        -0.312974
 C         1.417383         0.026553        -0.072592
 O         2.253100         0.581300         0.948041
 C         2.546358         0.972054        -0.307713
 C         3.424990        -0.178260        -0.997480
 O         4.401856        -0.583345        -0.100320
 C         4.345120        -1.944434         0.284910
 C         2.829562        -2.428819        -0.023125
 C         2.184701        -1.259878        -0.718716
 H        -0.281974        -0.225952        -1.300641
 H        -0.802470        -0.176002         0.337753
 H        -0.054622         1.328690        -0.358525
 H         2.653715         1.982662        -0.635967
 H         3.860042        -0.052532        -2.035688
 H         4.977186        -2.580445        -0.376016
 H         4.545655        -2.069550         1.354078
 H         3.037206        -3.249983        -0.650340
 H         2.248325        -2.692153         0.879542
 H         1.741796        -1.497049        -1.717187
