19
Iteration:  3967
 C        -0.038700         0.124959        -0.446508
 C         1.386003         0.053072        -0.164177
 O         2.224653         0.503666         0.970489
 C         2.540203         0.966678        -0.376746
 C         3.381437        -0.149129        -0.891908
 O         4.515638        -0.607890        -0.172169
 C         4.323295        -2.014895         0.191614
 C         2.805782        -2.280424         0.194760
 C         2.257945        -1.170916        -0.631682
 H        -0.092412         0.358829        -1.560840
 H        -0.612564        -0.742783        -0.152956
 H        -0.537322         0.975190         0.112443
 H         2.292688         2.063256        -0.515720
 H         3.685502        -0.128557        -1.991770
 H         4.984868        -2.739547        -0.440286
 H         4.707538        -1.993645         1.214759
 H         2.554435        -3.267783        -0.206548
 H         2.333914        -2.264319         1.166769
 H         1.833532        -1.267643        -1.619291
