19
Iteration:  3571charge 0 multiplicity 1
 C        -0.000529         0.159446        -0.572319
 C         1.411711         0.026474        -0.206934
 O         2.087020         0.553325         1.089980
 C         2.588327         1.014291        -0.191620
 C         3.348455        -0.153265        -0.887514
 O         4.587433        -0.665935        -0.366054
 C         4.319200        -2.043737         0.047219
 C         2.828091        -2.277690         0.364644
 C         2.250109        -1.174921        -0.616747
 H         0.027564         0.239385        -1.616201
 H        -0.555675        -0.728724        -0.246848
 H        -0.534155         1.044517        -0.282961
 H         2.421814         2.107393        -0.213705
 H         3.389602         0.232535        -1.891193
 H         4.829151        -2.806609        -0.573187
 H         4.729011        -2.154454         1.080561
 H         2.491483        -3.357932         0.198879
 H         2.628438        -2.016990         1.402547
 H         1.702706        -1.686261        -1.401810
