19
Iteration:  4531charge 0 multiplicity 1
 C        -0.162209         0.107344        -0.393383
 C         1.363164         0.071650        -0.183534
 O         1.982577         0.669832         0.926389
 C         2.516579         0.978466        -0.432495
 C         3.501247        -0.187116        -0.868096
 O         4.734845        -0.711138        -0.124043
 C         4.377984        -2.181965        -0.006672
 C         2.837890        -2.204131         0.369900
 C         2.230630        -1.137922        -0.619079
 H        -0.363679         0.547905        -1.379091
 H        -0.661749        -0.890289        -0.252083
 H        -0.546977         0.874102         0.240662
 H         2.601850         2.015239        -0.724287
 H         3.872335         0.054410        -1.903836
 H         4.605304        -2.794440        -0.888911
 H         5.143317        -2.346446         0.696429
 H         2.314581        -3.165843         0.519564
 H         2.655977        -1.807751         1.327056
 H         1.781158        -1.503351        -1.589008
