19
Iteration:  1041charge 0 multiplicity 1
 C         0.022415         0.068142        -0.072961
 C         1.487319         0.048463        -0.255101
 O         2.365060         0.589130         1.021791
 C         2.578716         1.017474        -0.288626
 C         3.455259        -0.130378        -0.898195
 O         4.421751        -0.612819         0.044998
 C         4.147661        -1.952756         0.300821
 C         2.660447        -2.468333        -0.359492
 C         2.240230        -1.077012        -0.923979
 H        -0.180043        -0.570973         0.779033
 H        -0.479842         0.967453         0.135079
 H        -0.374386        -0.432261        -0.957149
 H         2.472268         2.065901        -0.648200
 H         3.923164         0.085512        -1.875113
 H         4.989930        -2.630902        -0.032123
 H         4.142345        -2.083777         1.376006
 H         2.897018        -3.181707        -1.174297
 H         2.026689        -2.999874         0.465118
 H         1.756232        -1.221817        -1.879927
