19
Iteration:  2297charge 0 multiplicity 1
 C        -0.016640         0.383757        -0.176871
 C         1.442962        -0.099376        -0.127774
 O         2.182438         0.411313         1.019638
 C         2.508961         0.950474        -0.286825
 C         3.439010        -0.119648        -0.942322
 O         4.393781        -0.596297         0.096506
 C         4.310132        -1.967566         0.152334
 C         2.886565        -2.372292        -0.232810
 C         2.255339        -1.200344        -0.906095
 H        -0.775506        -0.265267        -0.687289
 H        -0.421207         0.594879         0.901511
 H        -0.029767         1.261099        -0.868625
 H         2.607295         2.051841        -0.476954
 H         3.932415        -0.008045        -1.937293
 H         5.018034        -2.467453        -0.533315
 H         4.700915        -2.146046         1.205575
 H         2.656046        -3.332297        -0.787871
 H         2.287689        -2.628020         0.727282
 H         1.748554        -1.329857        -1.865993
