19
Iteration:  3356charge 0 multiplicity 1
 C         0.059850         0.292870        -0.137279
 C         1.443741        -0.006152        -0.083779
 O         2.302937         0.449135         0.917810
 C         2.553282         0.956941        -0.461052
 C         3.422247        -0.206325        -1.025216
 O         4.463523        -0.548026        -0.109649
 C         4.152800        -1.853088         0.454364
 C         2.755321        -2.442560        -0.050200
 C         2.238261        -1.240404        -0.887662
 H        -0.538793        -0.176370        -0.975431
 H        -0.459678        -0.130342         0.726367
 H        -0.206654         1.361378        -0.197924
 H         2.479472         2.027539        -0.613649
 H         3.897632        -0.004819        -2.022352
 H         4.933553        -2.477161         0.026044
 H         4.296974        -1.681589         1.481398
 H         2.812567        -3.312046        -0.703105
 H         2.081858        -2.730322         0.714325
 H         1.800844        -1.633519        -1.796737
