19
Iteration:  1144
 C         0.049801         0.572753        -0.549997
 C         1.324587        -0.094473        -0.070916
 O         2.046191         0.168439         1.214186
 C         2.645620         0.741729         0.051083
 C         3.339280        -0.121141        -0.970736
 O         4.556314        -0.678678        -0.604576
 C         4.256986        -1.669392         0.453531
 C         2.924984        -2.385570        -0.025917
 C         2.224650        -1.195903        -0.791495
 H        -0.843465        -0.075020        -0.612687
 H        -0.032918         1.338399         0.271911
 H         0.177542         1.158830        -1.485999
 H         2.596736         1.833945         0.054017
 H         3.441614         0.353473        -1.951662
 H         5.165538        -2.282906         0.558496
 H         3.979172        -0.999015         1.342135
 H         3.276680        -3.168358        -0.710107
 H         2.420525        -2.931178         0.692039
 H         1.845788        -1.587513        -1.780016
