19
Iteration:  3761charge 0 multiplicity 1
 C         0.085029         0.018118        -0.140065
 C         1.485561        -0.005230        -0.215880
 O         2.247738         0.294062         0.971967
 C         2.713710         0.909517        -0.272039
 C         3.426794        -0.136667        -1.131456
 O         4.569966        -0.717055        -0.347776
 C         3.935141        -1.644235         0.651778
 C         2.694802        -2.170895        -0.008363
 C         2.208728        -1.118096        -0.942180
 H        -0.485063         0.164918        -1.074929
 H        -0.248871        -0.861622         0.322318
 H        -0.095368         0.916206         0.477031
 H         2.910708         1.978204        -0.453245
 H         3.720938         0.311765        -2.094031
 H         4.733786        -2.395051         0.844797
 H         3.741886        -0.945595         1.474884
 H         3.213691        -3.072914        -0.390055
 H         1.936793        -2.426362         0.777857
 H         1.758360        -1.467505        -1.905762
