19
Iteration:   481charge 0 multiplicity 1
 C        -0.079674         0.159989        -0.064886
 C         1.449129         0.031254        -0.167949
 O         2.202456         0.398576         1.061619
 C         2.600833         0.941979        -0.278993
 C         3.534693        -0.094648        -0.950592
 O         4.609696        -0.704727        -0.223095
 C         3.968533        -1.832988         0.536750
 C         2.825134        -2.362952        -0.365041
 C         2.300279        -1.088525        -0.972914
 H        -0.499170        -0.900568         0.146298
 H        -0.311511         0.972775         0.710822
 H        -0.386159         0.579563        -1.077570
 H         2.471121         2.013927        -0.292260
 H         3.892749         0.087872        -1.963787
 H         4.786957        -2.619973         0.690173
 H         3.491911        -1.433102         1.463934
 H         3.115415        -3.207587        -1.071079
 H         2.197428        -2.882178         0.375647
 H         1.930444        -1.090767        -1.957703
