19
Iteration:  1771charge 0 multiplicity 1
 C        -0.006435         0.278029        -0.400840
 C         1.413764         0.103592        -0.247028
 O         1.962500         0.301750         1.101809
 C         2.615205         0.931737        -0.090566
 C         3.462366        -0.124480        -0.848420
 O         4.542390        -0.638937        -0.068379
 C         4.377470        -2.013143        -0.132522
 C         2.792137        -2.230018         0.134303
 C         2.251083        -1.136482        -0.803299
 H        -0.540353        -0.337725         0.352643
 H        -0.387393         1.306535        -0.331917
 H        -0.357928         0.008822        -1.380752
 H         2.771986         1.992423        -0.095530
 H         3.710936         0.077890        -1.910907
 H         4.596091        -2.440229        -1.118445
 H         5.068448        -2.439744         0.706441
 H         2.438983        -3.182523        -0.302918
 H         2.655754        -2.121909         1.256604
 H         1.955713        -1.507848        -1.758074
