19
Iteration:  2568charge 0 multiplicity 1
 C        -0.016619         0.252383         0.086256
 C         1.484626        -0.030823        -0.222408
 O         2.241446         0.377833         0.939837
 C         2.578436         0.957637        -0.301319
 C         3.551540        -0.185516        -1.076571
 O         4.526834        -0.681928        -0.168580
 C         3.883656        -1.785312         0.576953
 C         2.811628        -2.428899        -0.326695
 C         2.377652        -1.103260        -1.017675
 H        -0.875741        -0.340759        -0.329348
 H        -0.140339         0.091311         1.224610
 H        -0.327831         1.297337         0.000856
 H         2.636859         2.023886        -0.217231
 H         3.983417         0.139745        -2.016245
 H         4.816506        -2.365034         0.921016
 H         3.414476        -1.366045         1.481970
 H         3.297639        -3.013853        -1.049168
 H         1.949632        -2.939503         0.196395
 H         1.773094        -1.111499        -1.908128
