19
Iteration:  4177
 C         0.034328         0.235175        -0.294652
 C         1.434408        -0.069536        -0.191756
 O         2.225208         0.297842         0.955543
 C         2.639958         0.920012        -0.307470
 C         3.398887        -0.111806        -1.083046
 O         4.529784        -0.664424        -0.362146
 C         4.156760        -1.673823         0.593528
 C         2.792669        -2.256546         0.146452
 C         2.182252        -1.246793        -0.858147
 H        -0.289403         0.383329        -1.320388
 H        -0.615067        -0.536531         0.177603
 H        -0.157267         1.154428         0.275859
 H         2.683384         1.999882        -0.448468
 H         3.660254         0.035437        -2.138557
 H         4.935180        -2.387398         0.371882
 H         4.078794        -1.341203         1.622098
 H         2.786935        -3.248627        -0.195204
 H         2.207718        -2.304339         1.094215
 H         1.825326        -1.783104        -1.723454
