19
Iteration:  4692
 C         0.032481         0.128285        -0.074152
 C         1.511513        -0.065348        -0.258750
 O         2.309399         0.387721         0.904639
 C         2.629393         0.959494        -0.431511
 C         3.419138        -0.228023        -1.108436
 O         4.549323        -0.588607        -0.249113
 C         3.956369        -1.689743         0.672236
 C         2.737477        -2.292762         0.031456
 C         2.247541        -1.216080        -0.927463
 H        -0.419850         0.051376        -1.085177
 H        -0.597767        -0.531917         0.604570
 H        -0.131989         1.110073         0.345582
 H         2.654235         2.049311        -0.599193
 H         3.704285         0.143506        -2.099324
 H         4.828601        -2.439024         0.734031
 H         3.783982        -1.365138         1.692808
 H         3.101805        -3.221914        -0.511729
 H         1.997783        -2.674244         0.782978
 H         1.803601        -1.386839        -1.925316
