19
Iteration:  2716
 C        -0.009430         0.404390        -0.394208
 C         1.428415        -0.053719        -0.140141
 O         2.074915         0.224478         1.103183
 C         2.586993         0.929152        -0.179907
 C         3.429481        -0.147499        -0.903531
 O         4.635732        -0.676212        -0.428658
 C         4.289442        -1.923088         0.252386
 C         2.747596        -2.228112         0.119056
 C         2.213348        -1.157399        -0.803717
 H        -0.071786         0.962798        -1.367318
 H        -0.843733        -0.202207        -0.318784
 H        -0.193511         1.159022         0.394849
 H         2.603168         2.044281        -0.206620
 H         3.647886         0.186493        -1.966346
 H         4.993094        -2.721816        -0.107046
 H         4.488614        -1.659545         1.334779
 H         2.486056        -3.297060         0.001770
 H         2.335102        -1.971020         1.133637
 H         1.819791        -1.499657        -1.816057
