19
Iteration:  4775
 C        -0.075202         0.132049        -0.412457
 C         1.406513        -0.020014        -0.119426
 O         2.213250         0.663707         0.957094
 C         2.478026         0.919599        -0.398124
 C         3.433249        -0.201211        -0.989318
 O         4.598869        -0.670387        -0.309834
 C         4.313634        -1.981582         0.391193
 C         2.751297        -2.259144         0.203162
 C         2.242011        -1.168722        -0.643802
 H        -0.209397         0.208989        -1.500774
 H        -0.431213        -0.805423        -0.144038
 H        -0.592257         0.950841         0.148805
 H         2.658995         1.976656        -0.491988
 H         3.767491         0.050683        -2.034204
 H         4.863527        -2.661462        -0.214929
 H         4.547471        -2.062242         1.481154
 H         2.641469        -3.137195        -0.330025
 H         2.257761        -2.296320         1.191635
 H         1.774477        -1.488525        -1.558652
