19
Iteration:  1613
 C        -0.189327         0.271192        -0.222272
 C         1.414135         0.070815        -0.254093
 O         2.078621         0.331524         1.039216
 C         2.651894         0.915368        -0.224316
 C         3.495344        -0.140860        -0.913086
 O         4.509455        -0.654091        -0.045389
 C         4.338286        -2.014875         0.153020
 C         2.812683        -2.256627        -0.060003
 C         2.272786        -1.074341        -0.888100
 H        -0.526236        -0.003491         0.806216
 H        -0.243916         1.354537        -0.371150
 H        -0.657413        -0.205005        -1.124041
 H         2.843581         1.994912        -0.377280
 H         3.827355         0.172896        -1.910104
 H         5.136459        -2.588232        -0.418084
 H         4.516210        -2.204087         1.163924
 H         2.684515        -3.254421        -0.451152
 H         2.396616        -2.426300         0.882221
 H         1.922873        -1.257636        -1.910739
