19
Iteration:  1647charge 0 multiplicity 1
 C        -0.034054         0.508208        -0.242510
 C         1.398428        -0.090128        -0.317094
 O         2.054386         0.253477         1.021529
 C         2.532205         0.863274        -0.200829
 C         3.433486        -0.102527        -0.882392
 O         4.521351        -0.573423        -0.057119
 C         4.357042        -1.960574         0.116843
 C         2.845969        -2.347552         0.046561
 C         2.261147        -1.179058        -0.913997
 H        -0.795351         0.036315         0.442294
 H         0.268593         1.463082         0.272357
 H        -0.600569         0.663224        -1.166774
 H         2.282931         1.938153        -0.386243
 H         3.779154         0.357003        -1.815618
 H         4.946558        -2.610592        -0.601674
 H         4.680085        -2.157865         1.103673
 H         2.903605        -3.303688        -0.447718
 H         2.495034        -2.290896         1.039739
 H         2.154676        -1.611465        -1.867162
