19
Iteration:  3392charge 0 multiplicity 1
 C        -0.025498         0.302599         0.081652
 C         1.434429         0.063529        -0.167683
 O         2.261794         0.566034         0.776200
 C         2.486209         0.962186        -0.578396
 C         3.429820        -0.224028        -0.956631
 O         4.438331        -0.667175        -0.066823
 C         4.147937        -1.920199         0.555904
 C         2.899019        -2.378553        -0.176560
 C         2.273232        -1.238245        -0.890792
 H        -0.475159         0.346365        -0.923690
 H        -0.364057        -0.615904         0.553178
 H        -0.213731         1.128992         0.741269
 H         2.715752         1.988566        -0.912401
 H         3.907585        -0.180805        -1.932673
 H         4.866726        -2.746805         0.467293
 H         3.992187        -1.789140         1.633370
 H         3.411734        -3.115829        -0.787584
 H         2.143426        -2.840434         0.523016
 H         1.932166        -1.683071        -1.849723
