19
Iteration:  2789
 C        -0.052226         0.180229        -0.147775
 C         1.490352         0.021786        -0.118985
 O         2.202143         0.543581         0.990964
 C         2.606596         0.991784        -0.331145
 C         3.403770        -0.145934        -0.961175
 O         4.578359        -0.845344        -0.357466
 C         4.125255        -1.874419         0.530692
 C         2.769781        -2.304249        -0.131607
 C         2.329172        -1.113460        -0.860454
 H        -0.261319         1.184793        -0.536453
 H        -0.734082        -0.524025        -0.748540
 H        -0.485618         0.206178         0.891989
 H         2.396374         2.102194        -0.390283
 H         3.811718         0.159736        -1.898330
 H         4.981768        -2.594126         0.578267
 H         3.826388        -1.731438         1.545339
 H         2.924906        -3.144666        -0.860382
 H         2.147235        -2.831315         0.514893
 H         1.705104        -1.396432        -1.715275
