19
Iteration:  4988
 C         0.102398         0.189719        -0.229950
 C         1.450415         0.002297        -0.236752
 O         2.185267         0.465604         0.951791
 C         2.542915         0.908456        -0.461004
 C         3.414983        -0.199278        -1.020376
 O         4.446107        -0.584114        -0.120308
 C         4.211280        -1.888062         0.339086
 C         2.780965        -2.222907         0.234270
 C         2.279552        -1.202641        -0.900978
 H        -0.196756        -0.061418        -1.250600
 H        -0.427680        -0.682908         0.377625
 H        -0.376496         1.112228         0.186186
 H         2.710174         1.937992        -0.548470
 H         3.835957        -0.166695        -2.060328
 H         4.875322        -2.673152        -0.140203
 H         4.503716        -1.879201         1.407833
 H         2.607292        -3.252027        -0.214056
 H         2.195474        -2.074638         1.164847
 H         1.644147        -1.734419        -1.642654
