19
Iteration:  4156charge 0 multiplicity 1
 C        -0.050019         0.412164        -0.193107
 C         1.377082        -0.093908        -0.214567
 O         2.225556         0.175759         0.974311
 C         2.540858         0.808241        -0.377379
 C         3.481954        -0.227935        -1.113590
 O         4.612303        -0.629796        -0.361179
 C         4.181904        -1.587451         0.661613
 C         2.795774        -2.182169         0.129256
 C         2.239481        -1.293040        -0.899121
 H        -0.460753         0.717972        -1.125517
 H        -0.741595        -0.400674         0.115388
 H        -0.207748         1.277155         0.450843
 H         2.597163         1.896760        -0.524348
 H         3.711878        -0.041408        -2.174241
 H         4.859429        -2.423055         0.636755
 H         3.915785        -1.041665         1.555173
 H         2.980418        -3.074018        -0.419768
 H         2.077136        -2.475180         0.943587
 H         1.929442        -1.543125        -1.914890
