19
Iteration:  3181
 C        -0.029547         0.174801        -0.123914
 C         1.488963         0.048460        -0.271596
 O         2.235405         0.496143         0.931437
 C         2.687620         0.948034        -0.354531
 C         3.425070        -0.274334        -1.037441
 O         4.523100        -0.823869        -0.420427
 C         4.029901        -1.651023         0.645808
 C         2.782298        -2.323381         0.045107
 C         2.255932        -1.164804        -0.841377
 H        -0.552752         0.176131        -1.130861
 H        -0.464119        -0.641580         0.508220
 H        -0.208108         1.092833         0.488799
 H         2.692047         2.049377        -0.386806
 H         3.721541        -0.119257        -2.101419
 H         4.945814        -2.289211         0.824215
 H         3.812354        -1.238047         1.655339
 H         3.037259        -3.226543        -0.594634
 H         2.169660        -2.528217         0.921887
 H         1.894775        -1.456486        -1.842346
