19
Iteration:  2835
 C         0.057463        -0.050387         0.058829
 C         1.490706         0.060586        -0.236792
 O         2.356921         0.370400         0.832412
 C         2.700320         0.999229        -0.340124
 C         3.476563        -0.156331        -1.082484
 O         4.456247        -0.769935        -0.263633
 C         3.893952        -1.729921         0.720426
 C         2.713204        -2.194190        -0.120637
 C         2.261525        -0.969415        -1.020343
 H        -0.330070         0.825032         0.697272
 H        -0.442826        -0.190905        -0.875229
 H        -0.100761        -1.006924         0.636933
 H         3.026278         2.006199        -0.407581
 H         3.875342        -0.084575        -2.109714
 H         4.547489        -2.619256         0.907442
 H         3.608640        -1.373388         1.710464
 H         2.826450        -3.134339        -0.634212
 H         1.920185        -2.553114         0.484683
 H         1.804202        -1.314738        -1.993471
