19
Iteration:   595
 C        -0.055206         0.069950        -0.406895
 C         1.514245         0.081897        -0.189885
 O         2.097687         0.166597         1.087634
 C         2.755092         0.897089         0.064047
 C         3.486548        -0.048246        -0.901646
 O         4.623881        -0.805893        -0.511468
 C         4.162870        -1.802064         0.355062
 C         2.589375        -2.071915         0.029437
 C         2.289346        -0.979228        -0.892680
 H        -0.508998        -0.416916         0.447472
 H        -0.531508         1.009235        -0.512183
 H        -0.345170        -0.552700        -1.243429
 H         2.836762         1.960095         0.294289
 H         3.622098         0.521006        -1.843781
 H         4.751690        -2.626463         0.213587
 H         4.224497        -1.442702         1.442986
 H         2.514949        -3.032515        -0.474419
 H         1.968221        -1.992674         0.951327
 H         1.886394        -1.305776        -1.912697
