19
Iteration:   698
 C        -0.048526         0.353009        -0.095606
 C         1.429435        -0.026824        -0.143556
 O         2.193895         0.417022         1.005403
 C         2.506765         0.919327        -0.301620
 C         3.489322        -0.179802        -1.006167
 O         4.597263        -0.674209        -0.173515
 C         4.091963        -1.846714         0.520704
 C         2.891849        -2.366693        -0.333585
 C         2.240775        -1.167732        -0.873992
 H        -0.641219        -0.502003         0.238288
 H        -0.215181         1.183774         0.619823
 H        -0.398043         0.653063        -1.072096
 H         2.444530         2.026532        -0.495372
 H         3.805325         0.048658        -2.040660
 H         4.974976        -2.601038         0.644421
 H         3.721015        -1.592775         1.447305
 H         3.212696        -3.107951        -1.116390
 H         2.286641        -3.021987         0.346598
 H         1.800013        -1.514925        -1.797228
