19
Iteration:  3712charge 0 multiplicity 1
 C        -0.076763         0.233196        -0.107618
 C         1.394079        -0.056639        -0.161214
 O         2.132033         0.568515         0.938216
 C         2.592582         0.891415        -0.397652
 C         3.499274        -0.220051        -0.960700
 O         4.624956        -0.694033        -0.244555
 C         4.180281        -1.843852         0.517227
 C         2.825024        -2.326232        -0.147825
 C         2.222417        -1.182413        -0.811523
 H        -0.493054         0.023312        -1.101307
 H        -0.658513        -0.255646         0.784787
 H        -0.240741         1.322442        -0.049265
 H         2.430515         1.995836        -0.425120
 H         3.784182         0.091473        -1.993879
 H         4.990124        -2.588816         0.417211
 H         4.169814        -1.455640         1.552736
 H         3.222688        -3.124880        -0.878318
 H         2.092079        -2.856123         0.499353
 H         1.815281        -1.416764        -1.797800
