19
Iteration:  1763charge 0 multiplicity 1
 C        -0.108326         0.240023        -0.399234
 C         1.417169         0.128125        -0.278280
 O         1.961465         0.320505         1.060026
 C         2.626351         0.945793        -0.082914
 C         3.482294        -0.068930        -0.813683
 O         4.581941        -0.683809        -0.125629
 C         4.329809        -2.057687        -0.116393
 C         2.829339        -2.252425         0.141885
 C         2.265088        -1.111414        -0.712719
 H        -0.557810        -0.443828         0.259936
 H        -0.329769         1.218607        -0.146789
 H        -0.305966        -0.095032        -1.427947
 H         2.713304         2.060582        -0.101063
 H         3.887462         0.445660        -1.720270
 H         4.597068        -2.398066        -1.165013
 H         5.021988        -2.637177         0.567837
 H         2.400994        -3.255639        -0.103886
 H         2.434860        -1.893895         1.110806
 H         2.199743        -1.400743        -1.798222
