19
Iteration:  2293charge 0 multiplicity 1
 C        -0.053262         0.376069        -0.169828
 C         1.430343        -0.105756        -0.128238
 O         2.183759         0.416904         0.997334
 C         2.528604         0.935423        -0.290036
 C         3.478274        -0.137431        -0.909163
 O         4.389284        -0.587901         0.059009
 C         4.277530        -1.948574         0.156724
 C         2.881839        -2.389886        -0.259618
 C         2.253896        -1.176965        -0.863606
 H        -0.799837        -0.226826        -0.644209
 H        -0.341805         0.695287         0.800652
 H        -0.069498         1.314776        -0.767555
 H         2.603677         1.975469        -0.424091
 H         4.013622         0.079953        -1.865728
 H         5.146797        -2.554484        -0.361916
 H         4.648720        -2.098770         1.189946
 H         2.748865        -3.250945        -0.852783
 H         2.394710        -2.746657         0.700515
 H         1.776450        -1.415338        -1.822987
