19
Iteration:   123
 C        -0.091002         0.186113        -0.183574
 C         1.463790         0.152144        -0.380702
 O         1.925197         0.132918         1.042663
 C         2.723039         0.856373         0.041128
 C         3.574322        -0.039754        -0.909651
 O         4.668135        -0.713791        -0.448668
 C         4.125164        -1.841947         0.444699
 C         2.736472        -2.244716        -0.093785
 C         2.334218        -0.997286        -1.001133
 H        -0.511415         1.083717         0.407839
 H        -0.782958         0.007865        -1.027810
 H        -0.151267        -0.687235         0.482719
 H         2.878579         1.949361         0.286341
 H         3.785424         0.615218        -1.757651
 H         4.961699        -2.478382         0.485945
 H         3.928406        -1.435113         1.497775
 H         2.665425        -3.250709        -0.421037
 H         2.057884        -2.214369         0.803055
 H         2.148320        -1.484897        -2.003318
