19
Iteration:  3111
 C         0.061643         0.077347         0.088310
 C         1.503966         0.060795        -0.264802
 O         2.269766         0.600658         0.796684
 C         2.620710         0.964573        -0.558180
 C         3.557576        -0.237498        -0.978889
 O         4.469741        -0.640126        -0.057274
 C         4.005184        -1.897216         0.482129
 C         2.684154        -2.382060        -0.116456
 C         2.235730        -1.112233        -0.851706
 H        -0.397731        -0.894954        -0.101590
 H         0.025232         0.279787         1.233699
 H        -0.548308         0.936375        -0.228633
 H         2.590538         1.931962        -1.044267
 H         3.896136        -0.220058        -2.047142
 H         4.723332        -2.688978         0.447682
 H         3.973674        -1.651566         1.544312
 H         2.930937        -3.194043        -0.780447
 H         1.944316        -2.602797         0.678488
 H         1.869586        -1.267629        -1.867344
