19
Iteration:  4712
 C        -0.065467         0.232260        -0.058641
 C         1.416066        -0.012081        -0.230310
 O         2.308655         0.425609         0.811461
 C         2.544407         0.902169        -0.510645
 C         3.549705        -0.179431        -1.043250
 O         4.466941        -0.664017        -0.147638
 C         4.159231        -1.773858         0.603821
 C         2.773381        -2.307441         0.005669
 C         2.281497        -1.183722        -0.907634
 H        -0.680241         0.289229        -1.035962
 H        -0.528475        -0.732935         0.423352
 H        -0.424387         0.953537         0.765474
 H         2.445751         1.980185        -0.623884
 H         3.945532        -0.051110        -2.038743
 H         5.160805        -2.289653         0.568418
 H         3.992383        -1.520732         1.701533
 H         2.734411        -3.287063        -0.469602
 H         1.998777        -2.294720         0.831578
 H         1.911187        -1.693952        -1.785916
