19
Iteration:  1462charge 0 multiplicity 1
 C         0.032550         0.440645        -0.499194
 C         1.398882        -0.036195        -0.120997
 O         1.969783         0.347100         1.154187
 C         2.548518         0.906867        -0.072662
 C         3.400797        -0.104803        -0.820874
 O         4.621686        -0.564968        -0.238884
 C         4.383123        -2.030029        -0.036816
 C         2.813979        -2.392560         0.062583
 C         2.222071        -1.163286        -0.703956
 H        -0.528169        -0.500813        -0.527126
 H        -0.522503         1.111722         0.108686
 H         0.030846         0.747838        -1.506845
 H         2.584309         1.976402        -0.236862
 H         3.571005         0.171390        -1.877477
 H         4.862691        -2.565450        -0.820397
 H         4.860451        -2.090932         0.956781
 H         2.689453        -3.247990        -0.648533
 H         2.443927        -2.405250         1.111924
 H         1.805095        -1.487872        -1.608899
