19
Iteration:   342charge 0 multiplicity 1
 C        -0.182845         0.559506        -0.257507
 C         1.363027         0.053155        -0.240150
 O         1.852754         0.359530         1.144543
 C         2.488497         0.889183        -0.035450
 C         3.511686        -0.111394        -0.884732
 O         4.765096        -0.804473        -0.495353
 C         4.351254        -1.933876         0.440048
 C         2.972965        -2.455748        -0.122820
 C         2.324497        -1.180710        -0.923717
 H        -0.304465         1.188951         0.557602
 H        -0.365673         1.178893        -1.110347
 H        -0.917277        -0.116876        -0.254823
 H         2.495405         1.958977        -0.025341
 H         3.657532         0.456227        -1.820857
 H         5.107773        -2.657437         0.469106
 H         4.130668        -1.459062         1.455249
 H         3.143064        -3.189279        -0.819301
 H         2.306844        -2.928862         0.624765
 H         1.777005        -1.495027        -1.897701
