19
Iteration:  2187
 C        -0.059901         0.101497        -0.161168
 C         1.451622         0.040345        -0.271274
 O         2.199478         0.132586         0.978301
 C         2.638518         0.991151        -0.100349
 C         3.500707        -0.052568        -0.914714
 O         4.679588        -0.657552        -0.314566
 C         4.081506        -1.832819         0.454329
 C         2.644342        -2.236213        -0.067175
 C         2.236744        -1.000555        -1.019026
 H        -0.432185        -0.593209         0.613069
 H        -0.511646         1.074869         0.151657
 H        -0.401316        -0.179186        -1.196280
 H         2.897081         1.981912         0.145600
 H         3.779477         0.266490        -1.934681
 H         4.788782        -2.575419         0.385752
 H         3.967738        -1.349503         1.440826
 H         2.828231        -3.073529        -0.749605
 H         1.914741        -2.342901         0.793097
 H         2.051957        -1.275467        -2.045988
