19
Iteration:  2711charge 0 multiplicity 1
 C        -0.040687         0.382402        -0.383536
 C         1.453671        -0.042006        -0.168201
 O         2.060708         0.231967         1.115627
 C         2.627911         0.891181        -0.178983
 C         3.455633        -0.090081        -0.917483
 O         4.639467        -0.699057        -0.445938
 C         4.277723        -1.895341         0.251370
 C         2.718883        -2.221556         0.166763
 C         2.191512        -1.165109        -0.825588
 H        -0.082086         0.831217        -1.361016
 H        -0.881832        -0.418831        -0.208910
 H        -0.227621         1.256415         0.262792
 H         2.718173         1.959589         0.056537
 H         3.674633         0.195852        -1.928207
 H         4.863052        -2.724624        -0.161566
 H         4.478596        -1.760372         1.294105
 H         2.636137        -3.305044         0.034987
 H         2.312059        -1.852692         1.087745
 H         1.954058        -1.362644        -1.850132
