19
Iteration:  1279
 C         0.049137         0.044355        -0.106903
 C         1.540608         0.025558        -0.195372
 O         2.156991         0.497864         0.965120
 C         2.612094         1.030050        -0.335137
 C         3.497501        -0.072889        -0.788330
 O         4.399086        -0.563369         0.142741
 C         4.179282        -2.062952         0.092073
 C         2.703881        -2.360686        -0.233185
 C         2.288512        -1.074822        -0.931145
 H        -0.354054        -0.998008         0.177650
 H        -0.452303         0.683455         0.660916
 H        -0.355514         0.317411        -1.090286
 H         2.728259         2.061876        -0.565340
 H         3.984495         0.064904        -1.773757
 H         4.715348        -2.271082        -0.797549
 H         4.548511        -2.506882         1.031023
 H         2.582793        -3.220982        -0.800106
 H         2.110159        -2.614938         0.677733
 H         2.004029        -1.128636        -1.978283
