19
Iteration:  4201charge 0 multiplicity 1
 C        -0.059930         0.103900        -0.326036
 C         1.370139         0.038973        -0.204694
 O         2.143306         0.526008         1.000039
 C         2.611538         0.952829        -0.285114
 C         3.448901        -0.187078        -0.971242
 O         4.663588        -0.742601        -0.455193
 C         4.205394        -1.844863         0.533948
 C         2.762602        -2.310227         0.116636
 C         2.257035        -1.077351        -0.766171
 H        -0.332889        -0.045741        -1.341086
 H        -0.544897        -0.661239         0.309874
 H        -0.464379         1.036826         0.044233
 H         2.639428         2.032613        -0.449627
 H         3.603269        -0.040494        -2.036301
 H         4.980598        -2.544682         0.366666
 H         4.142429        -1.391075         1.527375
 H         2.719112        -3.224945        -0.426040
 H         2.157144        -2.515647         1.022831
 H         1.911523        -1.618677        -1.632928
