19
Iteration:  3854charge 0 multiplicity 1
 C        -0.090253         0.318185        -0.481375
 C         1.396714         0.054267        -0.170755
 O         2.069033         0.443180         1.039876
 C         2.533175         0.932503        -0.297464
 C         3.400108        -0.168269        -0.928030
 O         4.517986        -0.627802        -0.253417
 C         4.440218        -2.014004         0.147911
 C         2.871068        -2.328450         0.233187
 C         2.305795        -1.184218        -0.595093
 H        -0.410135        -0.032885        -1.459099
 H        -0.716841        -0.153783         0.341678
 H        -0.265021         1.389159        -0.611489
 H         2.276209         1.963269        -0.316341
 H         3.610181        -0.063596        -2.063902
 H         4.873465        -2.829444        -0.505690
 H         4.796694        -1.869228         1.151973
 H         2.582846        -3.186887        -0.384370
 H         2.446556        -2.411649         1.248532
 H         1.995690        -1.497033        -1.600015
