19
Iteration:  4357
 O         0.388311         0.165368         0.528712
 C        -0.551145         1.271850         0.556017
 C        -2.045253         1.056323         0.242839
 C        -1.735743         1.669834         1.635363
 C        -1.310533         3.151148         1.626774
 C        -0.549146         3.466316         2.964295
 C         0.771902         3.765926         2.453205
 O         1.061539         2.836250         1.308963
 C        -0.207230         2.807796         0.582029
 H         0.386943        -0.083949         1.497294
 H        -2.333633         1.789415        -0.573073
 H        -2.315177         0.070622        -0.197448
 H        -1.849615         1.046772         2.507993
 H        -2.071782         3.923783         1.345878
 H        -0.964364         4.363684         3.460100
 H        -0.591524         2.728555         3.766069
 H         0.841104         4.794144         1.998124
 H         1.642584         3.685151         3.050263
 H        -0.262259         3.476591        -0.353664
