19
Iteration:  1093charge 0 multiplicity 1
 O         0.374437         0.273073         0.490670
 C        -0.571523         1.300829         0.676156
 C        -2.073947         0.934476         0.444041
 C        -1.740033         1.618727         1.728813
 C        -1.321944         3.145895         1.475371
 C        -0.592329         3.839951         2.673043
 C         0.749049         3.143654         2.676090
 O         1.164585         3.131754         1.240183
 C        -0.173715         2.773980         0.534898
 H         1.211660         0.755718         0.695204
 H        -2.624539         1.415162        -0.392821
 H        -2.185495        -0.157683         0.456901
 H        -2.048245         1.249467         2.701076
 H        -2.177279         3.840168         1.189499
 H        -0.591910         4.950174         2.412348
 H        -1.207958         3.606531         3.509458
 H         1.423739         3.607803         3.405336
 H         0.469228         2.121289         3.025982
 H        -0.043029         3.149775        -0.568083
