19
Iteration:   802charge 0 multiplicity 1
 O         0.329943         0.184086         0.496788
 C        -0.582637         1.252007         0.662230
 C        -2.078197         1.190718         0.318692
 C        -1.661385         1.547017         1.717215
 C        -1.317542         3.058238         1.558073
 C        -0.655527         3.786747         2.664135
 C         0.836442         3.432539         2.624156
 O         1.093289         2.993489         1.250168
 C        -0.177776         2.680637         0.651733
 H         1.256162         0.488875         0.839691
 H        -2.435972         1.941424        -0.279041
 H        -2.591462         0.278395         0.224814
 H        -1.783597         1.122602         2.674112
 H        -2.021139         3.689204         0.989856
 H        -0.850239         4.834464         2.537258
 H        -1.209067         3.536196         3.589508
 H         1.533411         4.305956         2.814318
 H         1.087911         2.616617         3.334174
 H         0.031682         3.063223        -0.400290
