19
Iteration:  3224charge 0 multiplicity 1
 O         0.301945         0.237766         0.543179
 C        -0.616497         1.301722         0.568735
 C        -2.062232         1.086532         0.239945
 C        -1.690142         1.578870         1.607000
 C        -1.238091         3.107794         1.654439
 C        -0.593894         3.569333         2.870407
 C         0.770590         3.800559         2.428101
 O         1.086490         2.740970         1.398191
 C        -0.138924         2.749544         0.599546
 H         1.139519         0.422347         1.042807
 H        -2.461369         1.696771        -0.544940
 H        -2.249449        -0.055948         0.217935
 H        -2.074446         0.977391         2.408573
 H        -1.970180         3.903778         1.386089
 H        -1.019435         4.482595         3.190538
 H        -0.851877         2.879944         3.699952
 H         0.637136         4.622770         1.784525
 H         1.648776         3.821501         3.116700
 H        -0.032197         3.345331        -0.346184
