19
Iteration:  2323charge 0 multiplicity 1
 O         0.467712         0.365071         0.551037
 C        -0.559684         1.285129         0.660217
 C        -1.957740         1.115147         0.326081
 C        -1.711661         1.583763         1.719282
 C        -1.386005         3.078092         1.585034
 C        -0.624989         3.804104         2.716266
 C         0.883643         3.314404         2.572794
 O         1.019803         2.812707         1.217986
 C        -0.347849         2.741360         0.607216
 H         1.311761         0.934835         0.774578
 H        -2.515842         1.779553        -0.433498
 H        -2.393642         0.086099         0.336990
 H        -1.987704         1.052065         2.630357
 H        -1.980591         3.922611         1.181632
 H        -0.793870         4.820054         2.451272
 H        -1.218970         3.670114         3.658935
 H         1.638503         4.147924         2.686913
 H         1.080207         2.474922         3.219423
 H        -0.336278         3.294220        -0.421113
