19
Iteration:  3161
 O         0.161048         0.073532         0.497706
 C        -0.567211         1.201195         0.648204
 C        -1.938701         1.132527         0.193996
 C        -1.867293         1.601313         1.579191
 C        -1.224430         3.048523         1.697886
 C        -0.619879         3.565397         2.931155
 C         0.820579         3.886206         2.419985
 O         1.138682         3.006442         1.324006
 C        -0.056399         2.632505         0.682953
 H         1.085568         0.452245         0.597936
 H        -2.238903         1.563029        -0.691633
 H        -2.404344         0.085517         0.118379
 H        -2.111671         0.850675         2.306802
 H        -1.949602         3.808067         1.290996
 H        -1.130055         4.445271         3.401755
 H        -0.622592         2.815645         3.860954
 H         0.603617         4.966001         2.045111
 H         1.694508         3.961080         3.061820
 H        -0.132523         3.051583        -0.343559
