19
Iteration:  3657
 O         0.356024         0.245030         0.597165
 C        -0.613264         1.271364         0.617893
 C        -2.047796         1.112004         0.174616
 C        -1.790223         1.602802         1.522784
 C        -1.318539         3.098256         1.597356
 C        -0.548229         3.491055         2.902483
 C         0.822210         3.795184         2.371319
 O         1.049386         2.851332         1.402237
 C        -0.119890         2.699461         0.625328
 H         0.972547         0.638045         1.242491
 H        -2.693677         1.779416        -0.510215
 H        -2.251213         0.087960         0.422794
 H        -1.970194         1.074430         2.528104
 H        -2.107887         3.811658         1.164962
 H        -1.043878         4.105839         3.693920
 H        -0.537737         2.608052         3.581537
 H         1.199122         4.776237         2.033510
 H         1.522219         3.576516         3.094644
 H        -0.037656         3.251493        -0.353315
