19
Iteration:  4045charge 0 multiplicity 1
 O         0.204041         0.092705         0.598158
 C        -0.627088         1.212783         0.601071
 C        -1.985160         1.200669         0.091027
 C        -1.700751         1.524625         1.611992
 C        -1.382538         2.968027         1.654864
 C        -0.577126         3.520690         2.953701
 C         0.894439         3.909863         2.384079
 O         1.152635         2.987737         1.349584
 C        -0.127785         2.702536         0.648849
 H         1.029272         0.326643         1.055715
 H        -2.391282         1.919873        -0.525441
 H        -2.562282         0.289602         0.025722
 H        -2.268611         0.950450         2.322164
 H        -2.147084         3.712635         1.419570
 H        -1.138908         4.394950         3.381781
 H        -0.480565         2.587343         3.604877
 H         0.765564         4.999674         2.071535
 H         1.807180         3.934775         3.080611
 H        -0.095538         3.215018        -0.312507
