19
Iteration:   214
 O         0.342490         0.329926         0.555790
 C        -0.631395         1.350855         0.594222
 C        -2.015500         1.060038         0.282645
 C        -1.764195         1.611568         1.697467
 C        -1.358569         3.095203         1.585664
 C        -0.607951         3.714029         2.841632
 C         0.917075         3.608738         2.431680
 O         1.047214         2.690297         1.324328
 C        -0.135767         2.717471         0.563008
 H         0.976066         0.528318         1.233782
 H        -2.674278         1.599655        -0.404376
 H        -2.135181        -0.050677         0.212260
 H        -2.117923         1.064017         2.561762
 H        -2.276407         3.715744         1.217075
 H        -0.897209         4.757175         2.994147
 H        -0.837310         3.299378         3.843378
 H         1.482650         4.603529         2.178581
 H         1.567268         3.090654         3.185981
 H        -0.018230         3.264509        -0.429689
