19
Iteration:  2673charge 0 multiplicity 1
 O         0.298443         0.224096         0.447376
 C        -0.644317         1.249088         0.663279
 C        -2.005694         1.083559         0.179685
 C        -1.756658         1.548765         1.626409
 C        -1.278388         3.083185         1.642752
 C        -0.487040         3.655459         2.895848
 C         0.844706         3.885484         2.351963
 O         0.983107         2.758623         1.471956
 C        -0.127422         2.712375         0.662121
 H         1.127898         0.437622         0.915001
 H        -2.486441         1.638378        -0.623396
 H        -2.458684         0.026140         0.047484
 H        -2.006768         0.845661         2.485805
 H        -2.078607         3.790791         1.317456
 H        -1.218011         4.421160         3.359393
 H        -0.409247         2.751254         3.671691
 H         0.987037         4.774664         1.675621
 H         1.623053         3.796784         3.099723
 H         0.019976         3.270044        -0.285036
