19
Iteration:  3096charge 0 multiplicity 1
 O         0.292460         0.225797         0.621993
 C        -0.645413         1.257480         0.597004
 C        -2.003433         1.097281         0.131398
 C        -1.822275         1.553794         1.533312
 C        -1.341317         3.036745         1.694870
 C        -0.549917         3.540475         3.010952
 C         0.923659         3.814305         2.335795
 O         1.100151         2.846385         1.313295
 C        -0.144634         2.768984         0.648519
 H         0.846933         0.413195         1.426326
 H        -2.372109         1.778261        -0.592425
 H        -2.275070        -0.000873         0.126014
 H        -2.237132         0.860687         2.206855
 H        -2.184195         3.685487         1.418096
 H        -0.991155         4.503699         3.365653
 H        -0.616937         2.621504         3.712585
 H         0.923519         4.839955         1.940714
 H         1.771678         3.940215         2.937150
 H         0.003189         3.463992        -0.293902
