19
Iteration:  3490charge 0 multiplicity 1
 O         0.308491         0.143663         0.575167
 C        -0.575909         1.307266         0.490557
 C        -1.958499         1.112563         0.196304
 C        -1.753889         1.577962         1.645817
 C        -1.365691         3.044938         1.615484
 C        -0.623620         3.597557         2.842308
 C         0.913900         3.769461         2.410408
 O         1.062224         2.833260         1.400194
 C        -0.182628         2.805395         0.604872
 H         0.783311         0.226712         1.441555
 H        -2.529624         1.828774        -0.404013
 H        -2.369577         0.025971         0.092401
 H        -1.977587         0.962787         2.499422
 H        -2.171100         3.804047         1.676803
 H        -1.129072         4.356515         3.433998
 H        -0.582017         2.831016         3.634200
 H         1.245766         4.835079         2.025143
 H         1.519520         3.636858         3.341233
 H        -0.014175         3.369772        -0.388839
