19
Iteration:  3450
 O         0.268097         0.170172         0.521803
 C        -0.589359         1.197225         0.616493
 C        -2.035089         1.123521         0.280155
 C        -1.854692         1.607476         1.679836
 C        -1.311114         3.092842         1.579683
 C        -0.602115         3.503414         2.900872
 C         0.801975         3.804541         2.466999
 O         1.163813         2.986018         1.305739
 C        -0.053479         2.651424         0.592817
 H         1.097539         0.603272         0.748582
 H        -2.313106         1.837948        -0.445057
 H        -2.370214         0.070980         0.124988
 H        -2.336673         1.036353         2.460265
 H        -2.044636         3.759913         0.992481
 H        -1.126838         4.468825         3.240109
 H        -0.622881         2.684001         3.655339
 H         1.130757         4.834158         2.391436
 H         1.475240         3.413348         3.194674
 H         0.077156         3.119849        -0.371684
