19
Iteration:  4529charge 0 multiplicity 1
 O         0.322081         0.145952         0.612065
 C        -0.604758         1.179533         0.570140
 C        -2.070665         1.195528         0.092841
 C        -1.707680         1.512541         1.549557
 C        -1.264407         3.033741         1.705242
 C        -0.524266         3.498806         2.993426
 C         0.796993         3.916686         2.395942
 O         1.096049         2.955535         1.416913
 C        -0.162941         2.691346         0.664184
 H         0.427589        -0.164744        -0.304115
 H        -2.542904         1.915969        -0.539568
 H        -2.443719         0.177529        -0.072503
 H        -2.390450         0.934959         2.283896
 H        -1.945195         3.830050         1.356916
 H        -1.079945         4.462688         3.364450
 H        -0.356591         2.631223         3.644880
 H         0.679056         4.890972         1.872499
 H         1.658438         4.025149         3.138381
 H        -0.086086         3.424338        -0.217108
