19
Iteration:  3124
 O         0.258804         0.155210         0.596271
 C        -0.618333         1.254934         0.609548
 C        -2.006446         1.209724         0.212616
 C        -1.726775         1.610151         1.598971
 C        -1.276520         3.031516         1.583181
 C        -0.539798         3.417586         2.900966
 C         0.754720         3.928577         2.395879
 O         1.067263         2.875780         1.342355
 C        -0.098496         2.685342         0.615268
 H         0.778262         0.305135         1.453374
 H        -2.417677         2.069245        -0.390031
 H        -2.352098         0.242981         0.169199
 H        -1.829709         0.904274         2.441261
 H        -2.117130         3.681351         1.258106
 H        -1.097741         4.134048         3.461461
 H        -0.356381         2.480032         3.391429
 H         0.825402         4.915268         1.873319
 H         1.576741         3.922853         3.219612
 H         0.061158         3.285363        -0.261589
