19
Iteration:  2111charge 0 multiplicity 1
 O         0.274556         0.037556         0.478303
 C        -0.435535         1.265314         0.681693
 C        -1.943294         1.114194         0.363744
 C        -1.592169         1.595217         1.723284
 C        -1.352936         3.035775         1.588750
 C        -0.642717         3.827409         2.760706
 C         0.764568         3.270322         2.630627
 O         0.970418         3.237008         1.164850
 C        -0.145672         2.807806         0.597866
 H         1.146855         0.099477         0.810936
 H        -2.472314         1.746742        -0.412208
 H        -2.222967         0.164876         0.297082
 H        -2.214074         1.068338         2.416775
 H        -2.158188         3.629440         1.059783
 H        -0.576597         4.935932         2.505053
 H        -1.066852         3.807007         3.785243
 H         1.614750         3.695263         3.128663
 H         0.700736         2.222767         2.959449
 H        -0.346262         3.347298        -0.371277
