19
Iteration:  2918
 O         0.149416         0.146400         0.510123
 C        -0.617905         1.248271         0.563786
 C        -1.995763         1.048017         0.145381
 C        -1.677966         1.521758         1.545644
 C        -1.318091         3.068422         1.639725
 C        -0.543110         3.639934         2.977011
 C         0.850465         3.872603         2.394307
 O         1.119898         2.858341         1.425848
 C        -0.122750         2.737138         0.661759
 H         0.986518         0.277820         1.064214
 H        -2.468820         1.803751        -0.397190
 H        -2.276161        -0.012649         0.136115
 H        -2.034268         1.107363         2.552073
 H        -2.097633         3.695710         1.173851
 H        -1.017618         4.529945         3.462482
 H        -0.491710         2.678316         3.684234
 H         0.702579         4.965143         1.969295
 H         1.673406         3.901917         3.147758
 H        -0.035704         3.430003        -0.267820
