19
Iteration:   307
 O         0.212210        -0.041309         0.484199
 C        -0.585322         1.166789         0.653064
 C        -1.995765         1.332409         0.153477
 C        -1.715004         1.565399         1.635575
 C        -1.271052         3.044449         1.666465
 C        -0.449816         3.545274         2.928586
 C         0.768247         4.021750         2.253585
 O         0.978962         2.850634         1.480434
 C        -0.083392         2.664740         0.654761
 H         1.010946        -0.023226         1.195835
 H        -2.278883         2.223317        -0.387444
 H        -2.600306         0.506651        -0.096386
 H        -2.047143         0.967639         2.554987
 H        -1.861482         3.831879         1.264953
 H        -1.042912         4.320992         3.377326
 H        -0.315934         2.842161         3.713219
 H         0.526913         5.014732         1.680547
 H         1.662707         4.145947         2.826606
 H         0.018692         3.210319        -0.272882
