19
Iteration:  1529
 O         0.362829         0.205695         0.621356
 C        -0.528553         1.275430         0.612620
 C        -2.043361         1.142272         0.433190
 C        -1.428582         1.598891         1.735895
 C        -1.351283         3.100259         1.463014
 C        -0.722366         3.745250         2.687629
 C         0.762195         3.119148         2.626375
 O         0.982776         3.172787         1.188433
 C        -0.197757         2.792257         0.478516
 H         1.042720         0.349340         1.318773
 H        -2.339864         1.980661        -0.239808
 H        -2.663861         0.218184         0.531854
 H        -1.488408         0.974335         2.624298
 H        -2.220907         3.599732         1.188239
 H        -0.474045         4.819039         2.541553
 H        -1.282465         3.628749         3.603131
 H         1.537363         3.786824         3.071364
 H         0.766994         2.175550         3.100124
 H        -0.139960         3.233591        -0.517898
