19
Iteration:  4439charge 0 multiplicity 1
 O         0.255727         0.113941         0.490981
 C        -0.551646         1.311881         0.656262
 C        -1.984235         1.118361         0.192294
 C        -1.678006         1.551965         1.661281
 C        -1.336158         3.025934         1.616767
 C        -0.662998         3.579090         2.848851
 C         0.877798         3.818284         2.441384
 O         1.058975         2.898472         1.448358
 C        -0.137476         2.792333         0.649821
 H         0.696287        -0.007822        -0.388948
 H        -2.547260         1.880201        -0.277007
 H        -2.288412         0.131511         0.064132
 H        -1.645147         0.847660         2.452818
 H        -2.083504         3.718769         1.208266
 H        -1.194627         4.455894         3.153348
 H        -0.682542         2.797030         3.568826
 H         1.076481         4.826106         2.102240
 H         1.645052         3.546556         3.235733
 H        -0.188984         3.324356        -0.304756
