19
Iteration:  4978charge 0 multiplicity 1
 O         0.376685         0.162289         0.334442
 C        -0.552563         1.177788         0.646252
 C        -1.981047         1.217072         0.200353
 C        -1.782520         1.565766         1.633725
 C        -1.397903         3.077247         1.728112
 C        -0.546820         3.525255         3.015668
 C         0.856271         3.937140         2.334042
 O         1.010782         2.836202         1.447858
 C        -0.179732         2.618870         0.673274
 H         1.197416         0.470163         0.729038
 H        -2.296978         1.804971        -0.679690
 H        -2.538808         0.328422         0.086323
 H        -2.258576         0.979049         2.396800
 H        -2.055272         3.775774         1.238932
 H        -1.046587         4.483502         3.338481
 H        -0.394632         2.797117         3.767965
 H         0.732702         4.983967         1.718639
 H         1.641186         4.011382         3.165613
 H        -0.018362         3.044814        -0.418057
