19
Iteration:  4625
 O         0.311028         0.307485         0.671936
 C        -0.576076         1.338204         0.637489
 C        -1.988805         1.113857         0.152875
 C        -1.797838         1.605262         1.562917
 C        -1.355993         3.034786         1.688354
 C        -0.566028         3.381728         2.989045
 C         0.870662         3.687745         2.389003
 O         1.124004         2.938120         1.188010
 C        -0.211640         2.762962         0.574288
 H         0.990000         0.296037         1.400179
 H        -2.288236         1.709344        -0.669088
 H        -2.290202         0.077577         0.058682
 H        -2.201208         0.820574         2.362059
 H        -2.112003         3.886983         1.540230
 H        -0.980403         4.295824         3.278454
 H        -0.609329         2.613992         3.704097
 H         1.000584         4.799914         2.382093
 H         1.547342         3.346028         3.258186
 H        -0.356104         3.229172        -0.373835
