19
Iteration:  1351charge 0 multiplicity 1
 O         0.283804         0.088670         0.651947
 C        -0.514070         1.321871         0.656187
 C        -1.948736         1.142306         0.326774
 C        -1.498106         1.563623         1.690906
 C        -1.396685         3.069576         1.595912
 C        -0.662151         3.884131         2.749793
 C         0.727276         3.182081         2.567925
 O         1.051082         3.153717         1.179867
 C        -0.195541         2.823923         0.479625
 H         1.179546         0.336942         0.779833
 H        -2.396150         1.893721        -0.385773
 H        -2.333473        -0.004177         0.308526
 H        -1.687396         0.966618         2.692316
 H        -2.280996         3.618090         1.379179
 H        -0.711630         4.955510         2.536033
 H        -1.117239         3.657586         3.699048
 H         1.668930         3.579683         3.056013
 H         0.565846         2.157975         2.994702
 H        -0.238230         3.214259        -0.543935
