19
Iteration:   595charge 0 multiplicity 1
 O         0.178536         0.111228         0.486657
 C        -0.552171         1.312419         0.681857
 C        -1.998606         1.029661         0.364660
 C        -1.654264         1.527714         1.714604
 C        -1.323930         3.097726         1.444633
 C        -0.589166         3.789778         2.692628
 C         0.830531         3.315185         2.721079
 O         1.130991         3.167891         1.231568
 C        -0.197260         2.857992         0.564074
 H         0.896467         0.022416         1.011349
 H        -2.510590         1.483532        -0.461367
 H        -2.131398        -0.080772         0.493797
 H        -1.894934         1.099924         2.754846
 H        -2.214883         3.607818         1.061973
 H        -0.521135         4.809440         2.588155
 H        -1.164739         3.579052         3.600646
 H         1.541838         4.188158         2.988669
 H         1.100755         2.450050         3.320121
 H        -0.087149         3.313172        -0.426389
