19
Iteration:   714
 O         0.366060         0.283087         0.707430
 C        -0.505986         1.335181         0.699650
 C        -1.937431         1.092744         0.345259
 C        -1.749031         1.689264         1.723600
 C        -1.392192         3.165930         1.502297
 C        -0.624915         3.648785         2.752362
 C         0.820480         3.146783         2.534938
 O         1.058034         2.985509         1.123843
 C        -0.243297         2.833794         0.512313
 H         1.209704         0.677762         0.822600
 H        -2.393760         1.678108        -0.350152
 H        -2.140663         0.014076         0.178104
 H        -2.192311         1.284794         2.685507
 H        -2.034072         4.053464         1.174600
 H        -0.769649         4.715966         2.934245
 H        -1.120723         3.136162         3.570910
 H         1.588748         3.891675         2.985346
 H         1.022734         2.209127         3.064026
 H        -0.216641         3.193124        -0.579937
