19
Iteration:   964charge 0 multiplicity 1
 O         0.375658         0.304489         0.727616
 C        -0.574644         1.292038         0.614132
 C        -2.109463         1.095655         0.368797
 C        -1.630003         1.606463         1.622199
 C        -1.355050         3.082768         1.495929
 C        -0.648275         3.564775         2.696092
 C         0.892852         3.278422         2.544928
 O         1.063782         3.051002         1.200101
 C        -0.161193         2.802884         0.524886
 H         0.854224         0.701714         1.571302
 H        -2.687274         1.965183        -0.280351
 H        -2.540099         0.115653         0.249923
 H        -1.886423         1.100037         2.500052
 H        -2.116655         3.748742         1.062346
 H        -0.805659         4.701942         2.821871
 H        -1.154083         3.264022         3.645642
 H         1.471463         4.186695         2.857092
 H         1.176553         2.484386         3.267896
 H        -0.157524         3.464373        -0.317017
