19
Iteration:    90
 O         0.217699         0.064111         0.640196
 C        -0.505456         1.295047         0.684878
 C        -1.836614         1.148960         0.323373
 C        -1.735540         1.624991         1.715416
 C        -1.379866         3.111567         1.571369
 C        -0.545485         3.743619         2.784564
 C         0.826962         3.186864         2.563895
 O         1.018950         3.283413         1.123342
 C        -0.252895         2.755845         0.536909
 H         1.221908         0.208681         0.927830
 H        -2.320160         1.673665        -0.426473
 H        -2.076453         0.072185         0.301516
 H        -2.122195         1.047056         2.546456
 H        -2.144849         3.802162         1.222445
 H        -0.475655         4.788994         2.553159
 H        -0.981992         3.568896         3.744032
 H         1.683740         3.720680         3.042028
 H         0.915235         2.138546         2.825057
 H        -0.195525         3.123750        -0.486208
