19
Iteration:    14charge 0 multiplicity 1
 O         0.352478         0.364720         0.612222
 C        -0.650252         1.369446         0.688342
 C        -1.958958         0.932735         0.261807
 C        -1.752518         1.712211         1.720563
 C        -1.480209         3.268366         1.572370
 C        -0.553603         3.778377         2.734802
 C         0.904730         3.160899         2.620096
 O         1.114619         2.856895         1.172249
 C        -0.276291         2.758551         0.505308
 H         1.243936         0.906731         0.993879
 H        -2.450208         1.370048        -0.479431
 H        -1.894155        -0.169897         0.230657
 H        -1.840851         1.214592         2.635216
 H        -2.369928         3.981478         1.357483
 H        -0.550425         4.823998         2.777891
 H        -0.950110         3.388908         3.630015
 H         1.735304         3.837426         2.923805
 H         1.058545         2.305804         3.266119
 H        -0.105939         3.129386        -0.499164
