19
Iteration:  2327charge 0 multiplicity 1
 O         0.472190         0.404114         0.566359
 C        -0.574204         1.254047         0.659247
 C        -1.991608         1.124794         0.312658
 C        -1.698962         1.552330         1.741607
 C        -1.377223         3.092090         1.585095
 C        -0.614047         3.804750         2.732806
 C         0.887903         3.320379         2.570589
 O         1.004055         2.806770         1.232758
 C        -0.311963         2.731716         0.573979
 H         1.145926         1.052054         0.720036
 H        -2.497334         1.801799        -0.525930
 H        -2.373550         0.163264         0.396807
 H        -2.110524         0.927529         2.516764
 H        -2.044505         3.842941         1.179236
 H        -0.727399         4.867430         2.421377
 H        -1.210821         3.574888         3.563997
 H         1.598935         4.162265         2.610463
 H         1.194201         2.544907         3.294762
 H        -0.280617         3.219033        -0.439727
