19
Iteration:  3874
 O         0.171618         0.203879         0.480895
 C        -0.586021         1.289675         0.580795
 C        -2.032041         1.042827         0.213598
 C        -1.584095         1.562865         1.697774
 C        -1.275481         3.098052         1.629014
 C        -0.666736         3.561894         2.862001
 C         0.849087         3.824499         2.430386
 O         1.073865         2.827160         1.404361
 C        -0.105804         2.779852         0.618853
 H         0.919936         0.275748         1.082420
 H        -2.366687         1.864189        -0.478054
 H        -2.183723        -0.070722         0.085483
 H        -1.678245         0.936569         2.558636
 H        -2.045628         3.679223         1.184911
 H        -1.279990         4.461656         3.122214
 H        -0.653616         2.842430         3.633883
 H         0.909414         4.866590         2.027306
 H         1.467500         3.475038         3.239086
 H        -0.056422         3.348887        -0.374746
