19
Iteration:  3341charge 0 multiplicity 1
 O         0.266320         0.155694         0.449741
 C        -0.560948         1.185147         0.697196
 C        -1.914372         1.087790         0.231418
 C        -1.866105         1.718832         1.600016
 C        -1.320851         3.061047         1.619808
 C        -0.554267         3.569640         2.953727
 C         0.803904         3.778492         2.380877
 O         1.124262         2.905114         1.337635
 C        -0.125667         2.703929         0.648629
 H         1.079138         0.174037         1.020461
 H        -2.168068         1.807889        -0.566541
 H        -2.588261         0.098891         0.188568
 H        -2.109406         1.259716         2.534991
 H        -2.199708         3.676736         1.383656
 H        -1.097533         4.515951         3.384196
 H        -0.589566         2.672517         3.626853
 H         0.565447         4.799109         1.953317
 H         1.522414         3.625932         3.237813
 H        -0.050059         3.229136        -0.311149
