19
Iteration:   674charge 0 multiplicity 1
 O         0.417049         0.509180         0.800541
 C        -0.686046         1.294742         0.639037
 C        -2.050212         0.910137         0.195309
 C        -1.851532         1.507419         1.604658
 C        -1.310451         3.198611         1.589571
 C        -0.453771         3.795509         2.728535
 C         0.887659         3.124567         2.632724
 O         1.079864         2.988904         1.137386
 C        -0.249444         2.773079         0.543640
 H         1.179520         1.219977         0.997845
 H        -2.633189         1.700659        -0.456453
 H        -2.366316        -0.156668         0.177702
 H        -2.252908         0.987520         2.447553
 H        -2.158199         3.804650         1.387624
 H        -0.313729         4.849435         2.539963
 H        -1.009841         3.588482         3.687607
 H         1.780270         3.562820         2.995007
 H         0.770959         2.100155         3.050283
 H        -0.228833         3.229566        -0.403002
