19
Iteration:  2261charge 0 multiplicity 1
 O         0.262234         0.055804         0.513898
 C        -0.467383         1.299663         0.673600
 C        -1.971443         1.081351         0.451739
 C        -1.521408         1.594131         1.784660
 C        -1.378499         3.168434         1.525943
 C        -0.773901         3.706555         2.709931
 C         0.755273         3.167949         2.568541
 O         1.090816         3.288260         1.230917
 C        -0.153061         2.868442         0.443784
 H         1.254257         0.104669         0.715759
 H        -2.639844         1.807849        -0.167327
 H        -2.298065         0.160709         0.601413
 H        -1.958773         1.084974         2.573046
 H        -2.287329         3.622352         1.171464
 H        -0.592042         4.823172         2.710096
 H        -1.202087         3.387429         3.620712
 H         1.433867         3.746928         3.245250
 H         0.794073         2.102680         2.918799
 H         0.123831         3.124844        -0.577561
