19
Iteration:   425charge 0 multiplicity 1
 O         0.384790         0.244099         0.695690
 C        -0.619240         1.262971         0.601908
 C        -2.035944         1.019815         0.280223
 C        -1.723217         1.603100         1.635458
 C        -1.360753         3.153083         1.634605
 C        -0.548777         3.772195         2.818101
 C         0.886675         3.256232         2.605535
 O         1.043238         3.011140         1.146256
 C        -0.266371         2.814737         0.492074
 H         1.248983         0.686910         1.100495
 H        -2.435808         1.624126        -0.600387
 H        -2.331599        -0.053848         0.170912
 H        -1.970459         0.955417         2.532942
 H        -2.096991         3.936848         1.156115
 H        -0.607368         4.897203         2.725714
 H        -0.897291         3.654559         3.874502
 H         1.485542         4.106919         2.745986
 H         1.220340         2.318280         3.193012
 H        -0.304350         3.301475        -0.553495
