19
Iteration:  4592
 O         0.336386         0.179151         0.629648
 C        -0.585583         1.247974         0.674550
 C        -2.065038         1.140797         0.170623
 C        -1.786369         1.648726         1.546855
 C        -1.275080         3.090593         1.642492
 C        -0.557819         3.389418         2.909542
 C         0.856142         3.774833         2.473745
 O         1.066531         3.051583         1.260470
 C        -0.193117         2.661920         0.642489
 H         1.203786         0.477876         0.347007
 H        -2.257518         1.786690        -0.609170
 H        -2.441967         0.096419         0.026793
 H        -2.273566         0.838637         2.275891
 H        -2.049984         3.872884         1.327144
 H        -1.052341         4.092777         3.486768
 H        -0.396558         2.632017         3.615461
 H         1.119994         4.861880         2.273604
 H         1.571673         3.225900         3.249547
 H        -0.437954         3.072287        -0.321230
