19
Iteration:  3402
 O         0.232800         0.177656         0.649068
 C        -0.534040         1.307063         0.542950
 C        -2.007958         1.153741         0.115559
 C        -1.710575         1.562484         1.575748
 C        -1.277962         3.020193         1.676956
 C        -0.567026         3.571093         2.977973
 C         0.816737         3.752636         2.380764
 O         1.058065         2.828404         1.326989
 C        -0.162725         2.771301         0.622925
 H         0.929032         0.451414         1.325371
 H        -2.680880         1.803284        -0.497346
 H        -2.232979         0.136367         0.122474
 H        -2.036392         1.028866         2.483273
 H        -2.187755         3.577736         1.286441
 H        -0.897952         4.511837         3.390179
 H        -0.465185         2.744444         3.743398
 H         0.843151         4.713852         1.784296
 H         1.677207         3.940554         2.990228
 H        -0.130109         3.419814        -0.325657
