19
Iteration:  3422
 O         0.302998         0.178839         0.512175
 C        -0.610371         1.201811         0.698530
 C        -1.978471         1.106357         0.171285
 C        -1.757571         1.610427         1.622041
 C        -1.326362         3.153894         1.639136
 C        -0.551763         3.524145         2.927039
 C         0.865185         3.821684         2.406186
 O         1.051346         2.890024         1.317440
 C        -0.179052         2.697823         0.607634
 H         0.881804         0.167905         1.306900
 H        -2.284850         1.867583        -0.645263
 H        -2.332594         0.125312         0.078778
 H        -2.180827         0.948319         2.412732
 H        -2.155740         3.781742         1.302501
 H        -1.104151         4.344755         3.282195
 H        -0.610235         2.785060         3.715901
 H         1.156252         4.896058         2.273595
 H         1.658983         3.507064         3.187712
 H        -0.087837         3.174046        -0.420538
