19
Iteration:  4388
 O         0.332612         0.282616         0.531421
 C        -0.628543         1.288813         0.566394
 C        -2.061377         1.100194         0.203483
 C        -1.768189         1.500438         1.656346
 C        -1.392537         3.009148         1.605675
 C        -0.529375         3.600873         2.877753
 C         0.887432         3.794272         2.474514
 O         1.100649         2.817853         1.358322
 C        -0.169525         2.734752         0.637482
 H         1.120083         0.648439         0.999879
 H        -2.465262         1.854549        -0.465313
 H        -2.197301         0.065470        -0.114934
 H        -2.133665         0.874332         2.464291
 H        -2.148871         3.714135         1.263840
 H        -0.975270         4.574481         3.332333
 H        -0.546147         2.850310         3.697334
 H         1.116033         4.797069         2.018640
 H         1.570583         3.440810         3.237080
 H        -0.177919         3.321004        -0.294866
