19
Iteration:  3090charge 0 multiplicity 1
 O         0.301635         0.216407         0.613493
 C        -0.633112         1.244137         0.599519
 C        -1.953073         1.111461         0.113543
 C        -1.852508         1.580632         1.547398
 C        -1.396304         3.019506         1.673410
 C        -0.491855         3.552265         2.958512
 C         0.919589         3.859073         2.380809
 O         1.067536         2.812893         1.310807
 C        -0.164927         2.772166         0.673530
 H         0.991516         0.472465         1.289103
 H        -2.467542         1.654520        -0.739330
 H        -2.330678         0.062065         0.102871
 H        -2.100561         0.853640         2.394104
 H        -2.121287         3.794851         1.348135
 H        -0.948033         4.420694         3.455168
 H        -0.404942         2.817999         3.730520
 H         0.964306         4.922154         2.024222
 H         1.790193         3.670490         3.134816
 H        -0.264932         3.281727        -0.257028
