19
Iteration:  4292
 O         0.237437        -0.008116         0.608436
 C        -0.593120         1.215693         0.629772
 C        -2.015913         1.198655         0.104409
 C        -1.680236         1.627341         1.519393
 C        -1.295189         3.021900         1.786758
 C        -0.527253         3.446687         2.976835
 C         0.794431         3.965675         2.360354
 O         1.077023         2.950564         1.319105
 C        -0.144915         2.747417         0.672429
 H         0.985353         0.201852         0.054930
 H        -2.122594         2.003352        -0.729799
 H        -2.483865         0.200810         0.086617
 H        -2.109041         1.070773         2.306898
 H        -2.020144         3.839464         1.460474
 H        -1.068210         4.168996         3.528679
 H        -0.414016         2.765939         3.789067
 H         0.628137         4.938900         1.894745
 H         1.477671         3.826326         3.123310
 H        -0.207528         3.310344        -0.313869
