19
Iteration:   965charge 0 multiplicity 1
 O         0.371182         0.309791         0.726972
 C        -0.573250         1.287024         0.618927
 C        -2.106754         1.100782         0.360530
 C        -1.627849         1.603080         1.623944
 C        -1.348700         3.087737         1.497849
 C        -0.650864         3.562241         2.692823
 C         0.893597         3.284107         2.547660
 O         1.064358         3.042846         1.196562
 C        -0.165795         2.812662         0.531143
 H         0.869525         0.704354         1.562433
 H        -2.669480         1.946253        -0.259068
 H        -2.536837         0.103954         0.241082
 H        -1.903985         1.104212         2.534766
 H        -2.129572         3.718053         1.068413
 H        -0.780928         4.671049         2.818021
 H        -1.171834         3.236519         3.648733
 H         1.485465         4.192174         2.851388
 H         1.151445         2.511247         3.275696
 H        -0.170790         3.415930        -0.366792
