19
Iteration:  4302charge 0 multiplicity 1
 O         0.201726         0.017187         0.581082
 C        -0.518517         1.244951         0.630281
 C        -1.979655         1.232345         0.152260
 C        -1.753425         1.566782         1.557998
 C        -1.348326         3.072777         1.738919
 C        -0.578403         3.460477         3.020830
 C         0.838492         3.880509         2.340602
 O         1.106632         3.010417         1.322784
 C        -0.122002         2.688316         0.675075
 H         1.096361         0.158154         0.230504
 H        -2.463254         1.839307        -0.701289
 H        -2.216413         0.176833         0.053640
 H        -2.358697         0.967515         2.181703
 H        -2.180360         3.748442         1.443436
 H        -1.078599         4.292773         3.463172
 H        -0.328424         2.588391         3.534447
 H         0.690502         4.927698         2.000837
 H         1.716862         3.976833         2.920168
 H        -0.119611         3.219137        -0.336420
