19
Iteration:  2394
 O         0.238782         0.068586         0.500928
 C        -0.514893         1.252779         0.730270
 C        -1.981817         1.086692         0.361393
 C        -1.669036         1.588017         1.714748
 C        -1.296795         3.152181         1.515230
 C        -0.716357         3.730173         2.808836
 C         0.838226         3.387707         2.611405
 O         1.089702         3.233029         1.165570
 C        -0.171972         2.732638         0.546188
 H         1.160422         0.274611         0.843507
 H        -2.430071         1.750392        -0.395438
 H        -2.340927        -0.067041         0.271067
 H        -1.682449         0.837940         2.587229
 H        -2.105012         3.713247         1.079995
 H        -0.864614         4.825922         2.950112
 H        -1.082282         3.158669         3.674682
 H         1.567002         4.095967         2.974213
 H         0.970142         2.372033         3.022694
 H        -0.147886         3.157394        -0.500852
