19
Iteration:  3531
 O         0.387194         0.193273         0.461579
 C        -0.606565         1.222265         0.603207
 C        -1.988590         1.185528         0.217281
 C        -1.839732         1.634942         1.633498
 C        -1.359555         3.053480         1.704590
 C        -0.603879         3.597629         2.872216
 C         0.816761         3.880129         2.387160
 O         1.125556         2.722638         1.440386
 C        -0.153421         2.664259         0.631680
 H         1.229793         0.574421         0.755879
 H        -2.460874         1.819421        -0.594856
 H        -2.387845         0.125366         0.000636
 H        -2.249782         1.193558         2.557869
 H        -2.050391         3.649572         1.157968
 H        -1.110756         4.467503         3.294206
 H        -0.639420         2.899973         3.721867
 H         0.811274         4.776061         1.856782
 H         1.689121         3.832889         3.129351
 H        -0.062339         3.232080        -0.268869
