19
Iteration:  2147
 O         0.317862         0.268314         0.527583
 C        -0.554815         1.314914         0.660240
 C        -2.084356         0.994739         0.410323
 C        -1.666193         1.597965         1.673621
 C        -1.339951         3.084071         1.453846
 C        -0.641026         3.699293         2.787610
 C         0.818735         3.285559         2.630085
 O         1.076773         3.179723         1.198202
 C        -0.096968         2.768688         0.557979
 H         1.121439         0.413844         1.002856
 H        -2.765188         1.516670        -0.315529
 H        -2.235541        -0.174912         0.518248
 H        -2.021364         1.271991         2.642317
 H        -2.103185         3.655614         0.910449
 H        -0.844846         4.721008         2.861852
 H        -1.025852         3.209176         3.704978
 H         1.575923         3.960936         3.058247
 H         0.994866         2.287613         3.098118
 H        -0.083161         3.136954        -0.552600
