19
Iteration:  2546charge 0 multiplicity 1
 O         0.328209         0.230515         0.658747
 C        -0.526382         1.304524         0.606938
 C        -2.019598         1.037453         0.295839
 C        -1.584640         1.556999         1.727031
 C        -1.388247         3.104852         1.638013
 C        -0.625840         3.767594         2.743882
 C         0.782778         3.127086         2.617102
 O         1.045999         3.241700         1.089621
 C        -0.167483         2.799768         0.571855
 H         1.135213         0.575937         1.018014
 H        -2.617109         1.709860        -0.347438
 H        -2.413614        -0.082810         0.165953
 H        -1.909268         1.054009         2.660753
 H        -2.166646         3.638536         1.096721
 H        -0.371713         4.769658         2.466142
 H        -1.149767         3.820345         3.632452
 H         1.629103         3.491200         3.215755
 H         0.693688         2.044456         2.867473
 H        -0.311529         3.153393        -0.526569
