19
Iteration:  4272charge 0 multiplicity 1
 O         0.228041         0.160076         0.678870
 C        -0.641105         1.230927         0.592896
 C        -2.029349         1.219427         0.064678
 C        -1.732762         1.424405         1.608861
 C        -1.253835         3.040078         1.662115
 C        -0.516322         3.496422         2.983908
 C         0.870709         3.944342         2.371769
 O         1.076311         2.969404         1.391228
 C        -0.132032         2.671870         0.627454
 H         0.750435        -0.004038        -0.115335
 H        -2.406591         2.193685        -0.438557
 H        -2.376320         0.197633        -0.171840
 H        -2.221909         0.822078         2.347666
 H        -2.113731         3.657449         1.243619
 H        -1.128215         4.189909         3.549384
 H        -0.256534         2.552967         3.541491
 H         0.522449         4.895211         1.952994
 H         1.785440         3.964378         2.972245
 H        -0.056470         3.222975        -0.295861
