19
Iteration:  1653
 O         0.300392         0.113288         0.611720
 C        -0.619655         1.155482         0.685556
 C        -2.060258         0.919849         0.257573
 C        -1.649920         1.589768         1.703171
 C        -1.336241         3.165419         1.573012
 C        -0.576812         3.729714         2.809227
 C         0.850111         3.308983         2.553129
 O         1.088526         3.336163         1.128408
 C        -0.162384         2.845581         0.575835
 H         1.071930         0.156522         1.326672
 H        -2.507446         1.430242        -0.640841
 H        -2.267470        -0.089739         0.299145
 H        -2.157051         1.120361         2.481301
 H        -2.115115         3.853351         1.167414
 H        -0.494532         4.865944         2.649043
 H        -1.176499         3.626873         3.842222
 H         1.458488         3.819657         3.250896
 H         0.880079         2.289851         2.888482
 H        -0.100754         3.266021        -0.370016
