19
Iteration:  4487
 O         0.313271         0.124721         0.471057
 C        -0.510049         1.269758         0.639667
 C        -2.076374         1.198119         0.204438
 C        -1.679024         1.542265         1.603857
 C        -1.275696         3.023465         1.627950
 C        -0.580946         3.503805         2.897051
 C         0.751112         3.952097         2.431269
 O         1.070143         2.900024         1.442056
 C        -0.097716         2.704280         0.728213
 H         0.052560        -0.458057        -0.230103
 H        -2.318323         1.982527        -0.529362
 H        -2.535564         0.218795        -0.071156
 H        -2.324382         1.030139         2.408877
 H        -2.101134         3.602083         1.245711
 H        -1.045878         4.453501         3.353773
 H        -0.409279         2.603288         3.536677
 H         0.795431         4.948107         1.922675
 H         1.610888         3.922996         3.107422
 H        -0.075639         3.069533        -0.297465
