19
Iteration:  2788
 O         0.366598         0.216191         0.581642
 C        -0.593756         1.258898         0.730313
 C        -2.020816         1.139764         0.151202
 C        -1.798882         1.643271         1.590411
 C        -1.340793         3.100900         1.589407
 C        -0.528226         3.459555         2.901177
 C         0.885364         3.807462         2.356364
 O         1.060935         2.850290         1.353865
 C        -0.233829         2.684618         0.639781
 H         1.114629         0.663714         0.970016
 H        -2.365208         1.817235        -0.660547
 H        -2.524891         0.133637        -0.042795
 H        -2.190890         1.144735         2.548347
 H        -2.089734         3.863571         1.310513
 H        -1.050083         4.169372         3.516670
 H        -0.318588         2.622053         3.527242
 H         1.019374         4.809793         2.059864
 H         1.489862         3.512347         3.239215
 H        -0.202783         3.157441        -0.306030
