19
Iteration:  3088charge 0 multiplicity 1
 O         0.302637         0.213534         0.611030
 C        -0.616500         1.249015         0.604013
 C        -1.952499         1.116801         0.101314
 C        -1.853771         1.583054         1.558348
 C        -1.400749         3.022771         1.671193
 C        -0.478765         3.548856         2.939283
 C         0.919211         3.865946         2.398129
 O         1.060345         2.811587         1.315613
 C        -0.182877         2.760402         0.679191
 H         1.027181         0.494196         1.248543
 H        -2.464981         1.631019        -0.753439
 H        -2.359345         0.014994         0.089147
 H        -2.079344         0.902154         2.419688
 H        -2.075287         3.814806         1.343073
 H        -0.946451         4.414957         3.477616
 H        -0.345607         2.880065         3.722546
 H         0.977076         4.910200         2.013465
 H         1.713861         3.597570         3.124658
 H        -0.315166         3.266354        -0.296507
