19
Iteration:  3056charge 0 multiplicity 1
 O         0.355948         0.207024         0.574141
 C        -0.565383         1.248941         0.678022
 C        -2.033532         1.162680         0.211571
 C        -1.778556         1.633617         1.633511
 C        -1.388566         3.064158         1.571329
 C        -0.625041         3.515381         2.955903
 C         0.822399         3.742288         2.488772
 O         1.122509         2.849396         1.240585
 C        -0.136518         2.702287         0.591897
 H         1.157972         0.727224         0.708213
 H        -2.370837         1.885325        -0.593961
 H        -2.634550         0.140016         0.365475
 H        -2.137683         1.090296         2.586599
 H        -2.099834         3.776657         1.119861
 H        -0.966806         4.513501         3.350916
 H        -0.634280         2.800869         3.701326
 H         0.985773         4.797322         2.059621
 H         1.725125         3.430340         3.109701
 H        -0.066639         3.191342        -0.381802
