19
Iteration:   361
 O         0.264782         0.167378         0.543552
 C        -0.641034         1.214647         0.654409
 C        -1.986141         1.069216         0.205395
 C        -1.743117         1.666509         1.615196
 C        -1.277393         3.127618         1.598688
 C        -0.535434         3.587303         2.889388
 C         0.906253         3.788003         2.446624
 O         1.069987         2.840878         1.315430
 C        -0.233569         2.716264         0.639439
 H         1.125207         0.364703         1.149222
 H        -2.292248         1.600339        -0.687472
 H        -2.402738         0.063980         0.361118
 H        -2.445432         1.224807         2.415049
 H        -2.017177         3.957073         1.310949
 H        -1.082367         4.361679         3.373044
 H        -0.542367         2.657623         3.436823
 H         1.128400         4.911266         2.118549
 H         1.645622         3.440299         3.129090
 H        -0.198675         3.341570        -0.307411
