19
Iteration:  2534charge 0 multiplicity 1
 O         0.359335         0.235101         0.649298
 C        -0.584982         1.277010         0.656651
 C        -1.923735         1.022879         0.310165
 C        -1.632248         1.628561         1.676254
 C        -1.360495         3.105481         1.572614
 C        -0.501749         3.847555         2.740328
 C         0.739631         3.055083         2.611952
 O         0.953066         3.194501         1.174432
 C        -0.243711         2.818260         0.485875
 H         1.208500         0.590619         0.969297
 H        -2.447427         1.574671        -0.432974
 H        -2.161925        -0.119353         0.476835
 H        -1.718003         0.935694         2.566046
 H        -2.272033         3.724808         1.496844
 H        -0.527256         4.916086         2.563447
 H        -0.869640         3.604877         3.687853
 H         1.662591         3.527082         3.068859
 H         0.566106         1.990180         2.893835
 H        -0.205117         3.432467        -0.487504
