19
Iteration:  3387charge 0 multiplicity 1
 O         0.262471         0.188102         0.656174
 C        -0.627679         1.297785         0.553837
 C        -2.090970         1.142630         0.155919
 C        -1.684771         1.550564         1.583410
 C        -1.355688         3.036901         1.670676
 C        -0.570092         3.448549         2.883521
 C         0.879824         3.923849         2.338250
 O         1.106746         2.794301         1.405404
 C        -0.147640         2.763473         0.644481
 H         1.028990         0.622731         1.072032
 H        -2.355309         1.916595        -0.638609
 H        -2.488680         0.083205        -0.032437
 H        -1.832915         0.746595         2.328209
 H        -1.869362         3.915184         1.452232
 H        -1.019779         4.411940         3.153231
 H        -0.522251         2.680489         3.657497
 H         0.813021         4.923205         1.807650
 H         1.681759         3.677493         3.140400
 H        -0.032328         3.425491        -0.246922
