19
Iteration:  2955
 O         0.318510         0.211715         0.435419
 C        -0.540624         1.228827         0.634156
 C        -2.082012         1.167166         0.201677
 C        -1.741443         1.583830         1.676702
 C        -1.348920         3.011270         1.580647
 C        -0.565127         3.594332         2.845998
 C         0.846391         3.893060         2.348937
 O         1.056334         2.766551         1.497863
 C        -0.139979         2.672772         0.718447
 H         1.118764         0.373817         1.026155
 H        -2.443943         2.076403        -0.432452
 H        -2.637178         0.241037        -0.014375
 H        -2.237619         1.131824         2.480864
 H        -2.087586         3.688657         1.163777
 H        -0.920634         4.394279         3.489373
 H        -0.370379         2.730785         3.432109
 H         0.986614         4.770325         1.665314
 H         1.697209         3.999044         3.025425
 H        -0.092926         3.211319        -0.209275
