19
Iteration:  3629
 O         0.288760         0.149728         0.511226
 C        -0.604235         1.196662         0.696264
 C        -1.959371         1.177789         0.130885
 C        -1.756548         1.585789         1.659489
 C        -1.324216         2.998418         1.609965
 C        -0.598447         3.557272         2.905234
 C         0.809469         3.778031         2.391042
 O         1.109851         2.928595         1.356212
 C        -0.130767         2.709058         0.696011
 H         1.079331         0.659460         0.807666
 H        -2.379883         1.832187        -0.671284
 H        -2.461272         0.127968        -0.066840
 H        -2.392980         1.251182         2.463319
 H        -2.071806         3.651290         1.219857
 H        -0.952916         4.531906         3.264080
 H        -0.869841         2.937442         3.782514
 H         1.019207         4.768322         1.899378
 H         1.710029         3.660871         3.175272
 H        -0.135371         3.375027        -0.182889
