19
Iteration:   487
 O         0.336017         0.287712         0.580561
 C        -0.547087         1.292551         0.603503
 C        -2.050014         1.055939         0.503516
 C        -1.538304         1.709274         1.719905
 C        -1.324622         3.167307         1.469765
 C        -0.648462         3.736714         2.649630
 C         0.760835         3.080785         2.600420
 O         1.041306         3.086727         1.246271
 C        -0.218997         2.768293         0.491848
 H         1.169162         0.759154         0.826873
 H        -2.630157         1.498457        -0.376606
 H        -2.254893        -0.001021         0.708924
 H        -1.774707         1.227052         2.702802
 H        -2.098921         3.656233         0.967487
 H        -0.578495         4.861095         2.629909
 H        -1.182121         3.390858         3.601270
 H         1.540306         3.592360         3.131401
 H         0.766648         2.112106         3.171212
 H        -0.044188         3.288732        -0.428216
