19
Iteration:   805
 O         0.359794         0.197048         0.497312
 C        -0.569452         1.249113         0.662848
 C        -2.121942         1.163110         0.315352
 C        -1.661561         1.578815         1.709860
 C        -1.306587         3.091211         1.563822
 C        -0.682286         3.764893         2.651205
 C         0.858166         3.434694         2.623443
 O         1.102475         2.985720         1.262816
 C        -0.184290         2.664793         0.647950
 H         1.178379         0.509989         0.754286
 H        -2.437813         1.987004        -0.295372
 H        -2.686523         0.273338         0.296018
 H        -1.843906         1.083013         2.670416
 H        -2.019679         3.645658         0.936832
 H        -0.784962         4.792168         2.518514
 H        -1.156041         3.502883         3.614206
 H         1.495292         4.271731         2.823540
 H         1.093710         2.667766         3.404121
 H        -0.067082         3.076139        -0.348009
