19
Iteration:   351charge 0 multiplicity 1
 O         0.214894         0.185832         0.556318
 C        -0.621543         1.241009         0.664381
 C        -2.023676         1.062386         0.163579
 C        -1.850996         1.599457         1.612743
 C        -1.292796         3.075166         1.602933
 C        -0.501330         3.536666         2.898212
 C         0.956746         3.836335         2.387461
 O         1.088747         2.864609         1.388534
 C        -0.160349         2.734894         0.623262
 H         1.024204         0.367480         1.164190
 H        -2.371159         1.755353        -0.552744
 H        -2.277161         0.022115        -0.061937
 H        -2.200090         1.095742         2.576015
 H        -2.079747         3.782671         1.308832
 H        -0.972694         4.417086         3.291559
 H        -0.578649         2.844874         3.713079
 H         0.945706         4.927311         1.915054
 H         1.762770         3.802100         3.083556
 H        -0.037346         3.235722        -0.350943
