19
Iteration:  1277
 O         0.551027         0.360972         0.658803
 C        -0.579991         1.276841         0.697589
 C        -2.004534         1.045395         0.315754
 C        -1.715278         1.771809         1.671442
 C        -1.359454         3.188421         1.492709
 C        -0.593937         3.685995         2.795262
 C         0.835434         3.207739         2.617292
 O         0.919614         2.925305         1.157743
 C        -0.253286         2.699057         0.483763
 H         1.350647         0.827918         0.662529
 H        -2.278853         1.630085        -0.510327
 H        -2.534216         0.079088         0.593026
 H        -2.193751         1.240380         2.593863
 H        -2.323105         3.778549         1.313265
 H        -0.755584         4.820118         2.774471
 H        -1.058976         3.265358         3.668960
 H         1.625350         3.971196         2.920901
 H         1.046742         2.265232         3.167515
 H        -0.202923         3.139221        -0.505591
