19
Iteration:     4charge 0 multiplicity 1
 O         0.331233         0.294795         0.598848
 C        -0.595945         1.283785         0.668695
 C        -2.012493         1.057016         0.327709
 C        -1.684051         1.679719         1.713007
 C        -1.375044         3.169795         1.554732
 C        -0.564540         3.775695         2.724741
 C         0.853354         3.156258         2.598474
 O         1.061083         2.993397         1.188793
 C        -0.203946         2.758572         0.536606
 H         1.225964         0.727792         0.956862
 H        -2.540179         1.580002        -0.390382
 H        -2.210381        -0.030674         0.276569
 H        -1.912068         1.143485         2.606193
 H        -2.245559         3.830458         1.201894
 H        -0.602030         4.838610         2.634391
 H        -1.068959         3.551320         3.638551
 H         1.615194         3.889905         2.932406
 H         0.784169         2.225287         3.161603
 H        -0.180675         3.164034        -0.478294
