19
Iteration:  2620
 O         0.279975         0.273506         0.529473
 C        -0.586491         1.264055         0.569876
 C        -2.036690         1.041997         0.307633
 C        -1.688146         1.572556         1.649339
 C        -1.351218         3.080408         1.534389
 C        -0.595570         3.633528         2.811000
 C         0.980490         3.636507         2.542460
 O         1.065829         2.910042         1.335910
 C        -0.214205         2.710040         0.603051
 H         1.093553         0.719692         0.943105
 H        -2.646550         1.570918        -0.321471
 H        -2.190084        -0.062669         0.044973
 H        -2.154731         1.074226         2.533862
 H        -2.182936         3.775169         1.172352
 H        -1.062461         4.672136         2.983460
 H        -0.940739         3.119675         3.785493
 H         1.323081         4.721910         2.388636
 H         1.458268         3.118590         3.386087
 H        -0.176003         3.177508        -0.345068
