19
Iteration:  2741
 O         0.105736         0.030186         0.513397
 C        -0.541584         1.258332         0.636739
 C        -1.946670         1.178888         0.197458
 C        -1.637584         1.506843         1.640337
 C        -1.297525         3.051138         1.656351
 C        -0.602229         3.537293         2.845934
 C         0.809653         3.909943         2.412935
 O         1.072873         2.967116         1.360354
 C        -0.075432         2.749483         0.639324
 H         0.818298         0.085259         1.158521
 H        -2.306856         1.970703        -0.385185
 H        -2.408167         0.305679        -0.025514
 H        -1.968418         0.770199         2.237889
 H        -2.134393         3.712593         1.356600
 H        -0.975539         4.396479         3.472756
 H        -0.468452         2.657662         3.566146
 H         0.748873         4.881174         2.048850
 H         1.536674         3.802802         3.202028
 H        -0.055398         3.248228        -0.328505
