19
Iteration:  2916charge 0 multiplicity 1
 O         0.154072         0.140128         0.511898
 C        -0.610819         1.236464         0.575152
 C        -2.002756         1.064329         0.154802
 C        -1.681262         1.512104         1.545652
 C        -1.317932         3.074239         1.630710
 C        -0.544328         3.620427         2.972146
 C         0.862401         3.883616         2.391433
 O         1.122231         2.862267         1.424471
 C        -0.136404         2.751039         0.663961
 H         0.955152         0.291110         1.060499
 H        -2.474116         1.803416        -0.383908
 H        -2.285081        -0.027198         0.141224
 H        -2.018207         1.052506         2.470968
 H        -2.097464         3.721950         1.165670
 H        -1.071491         4.514029         3.411421
 H        -0.510886         2.703952         3.647830
 H         0.786142         4.954795         2.021218
 H         1.649716         3.900500         3.175038
 H        -0.032850         3.427111        -0.265670
