19
Iteration:  2920charge 0 multiplicity 1
 O         0.151589         0.150160         0.508764
 C        -0.620186         1.266040         0.552442
 C        -1.989585         1.029300         0.138593
 C        -1.679064         1.537331         1.559632
 C        -1.315534         3.059697         1.649170
 C        -0.544915         3.650883         2.981808
 C         0.835187         3.867329         2.398553
 O         1.114651         2.854285         1.427156
 C        -0.106630         2.724525         0.655416
 H         0.971293         0.261306         1.040802
 H        -2.506440         1.830021        -0.478562
 H        -2.272065         0.018061         0.114204
 H        -2.032049         1.155788         2.582469
 H        -2.090342         3.679638         1.200222
 H        -0.944043         4.520156         3.509094
 H        -0.481381         2.731030         3.692139
 H         0.645764         4.913836         1.908066
 H         1.686588         3.897742         3.097059
 H        -0.040270         3.386808        -0.235027
