19
Iteration:  2943charge 0 multiplicity 1
 O         0.274444         0.176103         0.438259
 C        -0.626261         1.239422         0.623119
 C        -1.989738         1.149711         0.220669
 C        -1.741804         1.583185         1.578377
 C        -1.273162         3.092139         1.684737
 C        -0.562391         3.570209         2.934974
 C         0.824603         3.915802         2.288440
 O         1.070673         2.730104         1.491481
 C        -0.141776         2.703187         0.650405
 H         1.043197         0.363177         1.041111
 H        -2.474389         1.829773        -0.571323
 H        -2.297237         0.138432         0.257717
 H        -2.096893         0.996270         2.431655
 H        -1.987985         3.810108         1.296440
 H        -1.216661         4.385645         3.255555
 H        -0.516761         2.827534         3.746147
 H         0.645279         4.891243         1.736904
 H         1.596263         3.992814         3.044795
 H         0.060294         3.306103        -0.247905
