19
Iteration:  1193charge 0 multiplicity 1
 O         0.342136         0.114049         0.508554
 C        -0.543820         1.238596         0.780981
 C        -1.988644         1.123596         0.345898
 C        -1.663469         1.701750         1.707998
 C        -1.290834         3.134664         1.536954
 C        -0.715831         3.763337         2.780727
 C         0.786765         3.283409         2.567713
 O         1.033915         3.226099         1.153342
 C        -0.106667         2.615927         0.562157
 H         1.251364         0.270170         0.837466
 H        -2.621229         1.767788        -0.380512
 H        -2.226642         0.007608         0.411713
 H        -2.157845         1.089243         2.497853
 H        -2.018959         3.871572         1.098045
 H        -0.875819         4.878848         2.919193
 H        -1.025896         3.315558         3.739706
 H         1.471272         3.957922         3.092311
 H         0.874209         2.263325         3.009278
 H        -0.263740         2.906562        -0.577553
