19
Iteration:  2829
 O         0.345690         0.302882         0.679321
 C        -0.679724         1.245774         0.602054
 C        -2.093970         1.046025         0.130835
 C        -1.750352         1.627563         1.547715
 C        -1.291478         3.096776         1.635816
 C        -0.543877         3.485889         2.889099
 C         0.901999         3.743198         2.484235
 O         1.072815         2.836635         1.283133
 C        -0.181662         2.778165         0.600257
 H         0.902928         0.776042         1.398220
 H        -2.604476         1.543900        -0.642698
 H        -2.337101        -0.014928         0.139056
 H        -1.827323         1.068214         2.476789
 H        -2.085244         3.812879         1.319192
 H        -1.039867         4.324942         3.505570
 H        -0.609820         2.507508         3.606126
 H         1.058422         4.804681         2.037218
 H         1.741173         3.398626         3.109868
 H        -0.076884         3.359695        -0.396639
