19
Iteration:  2539
 O         0.330996         0.237080         0.654950
 C        -0.542055         1.268280         0.628500
 C        -1.966757         1.006708         0.291703
 C        -1.611410         1.606027         1.713128
 C        -1.383477         3.097074         1.605633
 C        -0.532893         3.823822         2.742177
 C         0.759367         3.086797         2.627130
 O         0.970056         3.217556         1.116168
 C        -0.172986         2.820917         0.526425
 H         1.172152         0.656706         1.005209
 H        -2.571856         1.680974        -0.422995
 H        -2.241763         0.003943         0.358128
 H        -1.767423         0.995705         2.551581
 H        -2.270232         3.686748         1.317661
 H        -0.418128         4.895221         2.448778
 H        -1.087284         3.619446         3.747884
 H         1.591018         3.420417         3.195710
 H         0.600113         2.048443         2.919540
 H        -0.270779         3.310814        -0.447336
