19
Iteration:  1935charge 0 multiplicity 1
 O         0.328802         0.280569         0.576709
 C        -0.559241         1.275728         0.679887
 C        -2.044400         1.011674         0.308448
 C        -1.732777         1.618938         1.733406
 C        -1.279961         3.098942         1.526021
 C        -0.652816         3.639994         2.778830
 C         0.898030         3.323119         2.571722
 O         1.045293         3.197762         1.183638
 C        -0.144192         2.687400         0.523939
 H         1.043598         0.485390         1.294632
 H        -2.573023         1.714340        -0.324630
 H        -2.428730        -0.111561         0.173557
 H        -2.005273         1.255606         2.842532
 H        -2.093743         3.835647         1.142786
 H        -0.956828         4.667321         2.897675
 H        -1.119441         3.041028         3.525705
 H         1.634473         4.136971         2.810711
 H         1.080475         2.420859         3.179393
 H        -0.228853         3.138146        -0.548932
