19
Iteration:   593charge 0 multiplicity 1
 O         0.175776         0.102380         0.479136
 C        -0.538556         1.321986         0.687290
 C        -2.000260         1.044628         0.356197
 C        -1.655100         1.528212         1.715508
 C        -1.321677         3.096322         1.460013
 C        -0.591444         3.795046         2.719543
 C         0.834583         3.334200         2.718254
 O         1.119743         3.146045         1.233218
 C        -0.197051         2.835893         0.550086
 H         0.973320         0.070500         1.048224
 H        -2.500102         1.420361        -0.455653
 H        -2.117004        -0.006105         0.383730
 H        -1.844862         1.101458         2.735256
 H        -2.302647         3.581811         1.100478
 H        -0.535502         4.841615         2.568787
 H        -1.175563         3.661669         3.579990
 H         1.551655         4.230888         2.960466
 H         1.073750         2.454409         3.314507
 H        -0.069499         3.295803        -0.489104
