19
Iteration:  2556
 O         0.354537         0.207907         0.625176
 C        -0.588286         1.305236         0.685944
 C        -2.048490         1.134245         0.361424
 C        -1.625401         1.517178         1.699847
 C        -1.353784         3.047849         1.557558
 C        -0.692339         3.732692         2.729522
 C         0.810535         3.160175         2.552733
 O         1.147963         3.249316         1.167007
 C        -0.239179         2.773647         0.552490
 H         1.204090         0.425089         1.051720
 H        -2.521754         1.843764        -0.266402
 H        -2.244509        -0.016128         0.153637
 H        -1.930847         1.000530         2.645608
 H        -2.183649         3.692622         1.177551
 H        -0.662776         4.791082         2.449203
 H        -1.055008         3.729380         3.709902
 H         1.534860         3.899115         2.982698
 H         0.985738         2.080509         2.830136
 H        -0.171259         3.291361        -0.451704
