19
Iteration:   218charge 0 multiplicity 1
 O         0.341210         0.284885         0.554499
 C        -0.586957         1.361632         0.616283
 C        -2.021267         1.101650         0.293797
 C        -1.734392         1.616397         1.689595
 C        -1.354224         3.097345         1.587826
 C        -0.610784         3.695340         2.854383
 C         0.882654         3.596331         2.404858
 O         1.018014         2.698989         1.330722
 C        -0.155049         2.731800         0.540659
 H         1.063483         0.443832         1.297205
 H        -2.721193         1.650560        -0.412688
 H        -2.078982        -0.018171         0.190559
 H        -2.012062         1.120420         2.604271
 H        -2.160956         3.753698         1.177904
 H        -0.927344         4.763669         2.965111
 H        -0.840589         3.295364         3.861819
 H         1.366821         4.550663         2.177854
 H         1.628976         3.102714         3.129537
 H         0.041060         3.278998        -0.373407
