19
Iteration:  3325
 O         0.239735         0.096634         0.498871
 C        -0.602880         1.264504         0.647268
 C        -2.004286         1.108651         0.184861
 C        -1.739692         1.531427         1.624308
 C        -1.326957         3.111406         1.618890
 C        -0.598584         3.566376         2.905237
 C         0.894672         3.858685         2.471197
 O         1.088693         2.936934         1.341916
 C        -0.135804         2.713668         0.623932
 H         1.029117         0.158227         1.036767
 H        -2.522889         1.652268        -0.608784
 H        -2.146301         0.085373         0.094457
 H        -2.308929         1.025708         2.435048
 H        -1.971008         3.898546         1.123877
 H        -1.020559         4.406990         3.422075
 H        -0.618501         2.848984         3.763413
 H         1.157504         4.873665         2.146622
 H         1.599232         3.606011         3.257822
 H        -0.141875         3.142656        -0.399920
