19
Iteration:   651charge 0 multiplicity 1
 O         0.410641         0.317994         0.735643
 C        -0.562003         1.301458         0.693269
 C        -1.946367         1.125864         0.275684
 C        -1.680959         1.696142         1.715191
 C        -1.417952         3.130557         1.572994
 C        -0.602249         3.710749         2.678500
 C         0.802488         3.064517         2.503869
 O         1.023307         3.008417         1.151757
 C        -0.262679         2.806211         0.590951
 H         1.281229         0.748858         0.790301
 H        -2.306593         1.765450        -0.615510
 H        -2.267295         0.029803         0.257607
 H        -2.005567         1.312655         2.718441
 H        -2.269546         3.764214         1.366075
 H        -0.443904         4.699343         2.359813
 H        -1.028356         3.669992         3.710827
 H         1.648372         3.625223         2.953450
 H         0.827037         2.048292         2.938835
 H        -0.193388         3.189999        -0.409348
