19
Iteration:  4063charge 0 multiplicity 1
 O         0.267921         0.176408         0.552681
 C        -0.584141         1.297576         0.655746
 C        -2.009627         1.133963         0.142765
 C        -1.791711         1.483481         1.602796
 C        -1.351935         3.026944         1.679096
 C        -0.531745         3.538986         2.889844
 C         0.847117         3.911805         2.398392
 O         1.100410         2.874141         1.350407
 C        -0.139311         2.743349         0.635118
 H         0.437894         0.036701         1.493590
 H        -2.395515         1.999981        -0.529472
 H        -2.177501         0.131661        -0.328163
 H        -1.991500         0.774813         2.478119
 H        -2.159267         3.648401         1.304942
 H        -0.932611         4.370850         3.427089
 H        -0.227133         2.753110         3.559947
 H         0.957731         4.900543         1.873962
 H         1.507131         3.709702         3.193977
 H        -0.026996         3.324886        -0.334356
