19
Iteration:  2486
 O         0.509906         0.484438         0.629155
 C        -0.669620         1.299909         0.640224
 C        -2.140145         0.981677         0.405089
 C        -1.703564         1.635620         1.729208
 C        -1.365032         3.145324         1.444118
 C        -0.592597         3.653591         2.759799
 C         0.874159         3.171197         2.562315
 O         1.076163         2.978549         1.244162
 C        -0.226466         2.750651         0.479385
 H         1.403275         0.992186         0.715230
 H        -2.784399         1.612448        -0.230797
 H        -2.228223         0.033263         0.383516
 H        -2.058969         1.280110         2.646411
 H        -2.025799         3.939927         0.992041
 H        -0.664579         4.766528         2.653590
 H        -1.234591         3.310732         3.694070
 H         1.473307         3.956254         3.063113
 H         0.912612         2.123366         2.983589
 H        -0.135669         3.024893        -0.483746
