19
Iteration:   893charge 0 multiplicity 1
 O         0.411641         0.257562         0.642027
 C        -0.575801         1.231196         0.740360
 C        -2.093850         1.130289         0.282266
 C        -1.647253         1.613969         1.759623
 C        -1.324903         3.108613         1.521477
 C        -0.619162         3.794667         2.676349
 C         0.781724         3.135643         2.589862
 O         1.046740         3.162929         1.185226
 C        -0.152553         2.723679         0.563856
 H         1.382449         0.615113         0.550923
 H        -2.418359         1.808044        -0.444537
 H        -2.641350         0.164143         0.245942
 H        -2.233708         1.141499         2.628802
 H        -2.176576         3.624194         1.026836
 H        -0.515970         4.850047         2.583287
 H        -1.034104         3.639393         3.659781
 H         1.585339         3.643219         3.108913
 H         0.700769         2.074529         2.967459
 H        -0.246246         2.961444        -0.533506
