19
Iteration:  1185charge 0 multiplicity 1
 O         0.286158         0.162802         0.530858
 C        -0.521386         1.238716         0.764843
 C        -2.030026         1.075556         0.367912
 C        -1.679858         1.624396         1.712436
 C        -1.366402         3.129715         1.505978
 C        -0.682389         3.728371         2.757748
 C         0.802029         3.314648         2.575822
 O         1.078036         3.203730         1.189810
 C        -0.100898         2.688744         0.572913
 H         1.144924         0.506500         0.731430
 H        -2.344367         1.685137        -0.562902
 H        -2.195436         0.035953         0.189277
 H        -2.048159         1.279723         2.645582
 H        -2.117276         3.736306         1.068091
 H        -0.619021         4.785209         2.766484
 H        -1.152061         3.333634         3.688628
 H         1.595880         3.988728         2.888384
 H         1.043311         2.305794         3.040813
 H        -0.040436         2.981284        -0.445962
