19
Iteration:  1013charge 0 multiplicity 1
 O         0.422506         0.147281         0.560040
 C        -0.576836         1.219445         0.702256
 C        -2.023313         1.041568         0.183004
 C        -1.869093         1.668923         1.668146
 C        -1.387982         3.080249         1.574556
 C        -0.496816         3.765061         2.767630
 C         0.937292         3.378252         2.667730
 O         1.039451         3.101027         1.191050
 C        -0.235474         2.712373         0.610528
 H         1.212067         0.677331         0.708424
 H        -2.428530         1.443502        -0.639639
 H        -2.313233         0.007250         0.367167
 H        -2.497721         1.218612         2.518159
 H        -2.108418         3.865628         1.226210
 H        -0.709087         4.806332         2.656366
 H        -0.953707         3.567415         3.749402
 H         1.475880         4.267228         2.991981
 H         1.232654         2.525690         3.326895
 H        -0.321024         3.352713        -0.379450
