19
Iteration:  3461charge 0 multiplicity 1
 O         0.233778         0.164816         0.546429
 C        -0.634059         1.249928         0.651310
 C        -1.985583         1.099227         0.180188
 C        -1.716708         1.647512         1.664601
 C        -1.211873         3.084742         1.574506
 C        -0.669812         3.521035         2.903815
 C         0.842786         3.777952         2.531017
 O         1.123546         2.961500         1.306109
 C        -0.137460         2.661206         0.545274
 H         1.119996         0.435060         0.765001
 H        -2.521612         1.655376        -0.518475
 H        -2.393942         0.070574         0.139474
 H        -1.915859         1.135440         2.597126
 H        -2.099827         3.814524         1.494129
 H        -1.234238         4.454384         3.292707
 H        -0.759351         2.751640         3.717483
 H         0.898665         4.735256         2.071354
 H         1.537430         3.526592         3.304872
 H        -0.043949         2.995238        -0.481140
