19
Iteration:  3718charge 0 multiplicity 1
 O         0.351494         0.162520         0.583049
 C        -0.624886         1.151104         0.711198
 C        -1.976717         1.162247         0.168829
 C        -1.863827         1.561963         1.553082
 C        -1.323308         3.052202         1.606650
 C        -0.563206         3.520846         2.865458
 C         0.944621         3.828907         2.491103
 O         1.098458         2.961713         1.304725
 C        -0.233549         2.715359         0.625363
 H         1.140104         0.674782         0.918323
 H        -2.451993         1.821055        -0.552127
 H        -2.629778         0.337522        -0.013169
 H        -2.344344         1.008339         2.408241
 H        -2.016249         3.814173         1.351504
 H        -1.048527         4.435665         3.193849
 H        -0.398678         2.712302         3.570715
 H         1.114191         4.908345         2.321561
 H         1.517151         3.353098         3.393915
 H        -0.237667         3.125451        -0.423697
