19
Iteration:  3801
 O         0.304672         0.184065         0.451572
 C        -0.572846         1.222052         0.651872
 C        -2.068031         1.144897         0.218372
 C        -1.787275         1.630344         1.611634
 C        -1.304993         3.017121         1.665482
 C        -0.626458         3.516575         2.868198
 C         0.813206         3.862931         2.371932
 O         1.111999         2.799803         1.419741
 C        -0.091026         2.762289         0.661421
 H         1.073486         0.431910         0.985302
 H        -2.262032         1.769255        -0.698753
 H        -2.335626         0.049223         0.261301
 H        -2.002202         1.089171         2.484627
 H        -2.108343         3.778316         1.370436
 H        -1.050220         4.465752         3.307796
 H        -0.529059         2.822703         3.776357
 H         0.719495         4.801751         1.748794
 H         1.598928         3.870932         3.106865
 H         0.026960         3.390547        -0.236771
