19
Iteration:  2760charge 0 multiplicity 1
 O         0.228969         0.074661         0.531844
 C        -0.585387         1.255245         0.623741
 C        -2.044028         1.131339         0.117910
 C        -1.794655         1.589688         1.583178
 C        -1.277235         2.992297         1.624962
 C        -0.566908         3.540081         3.005705
 C         0.878474         3.875930         2.415664
 O         1.156766         2.968861         1.319565
 C        -0.139217         2.717380         0.672792
 H         0.816476         0.250403         1.251650
 H        -2.578303         1.702854        -0.667631
 H        -2.198640         0.035672        -0.025566
 H        -2.151983         1.158798         2.561945
 H        -2.114792         3.662744         1.345691
 H        -1.196935         4.436901         3.289829
 H        -0.525049         2.856636         3.938988
 H         0.816072         4.959150         1.946115
 H         1.651136         3.783403         3.159511
 H        -0.188073         3.322505        -0.319528
