19
Iteration:   612
 O         0.245197         0.139594         0.516418
 C        -0.565710         1.257641         0.634868
 C        -2.042506         0.963054         0.412441
 C        -1.652151         1.700360         1.694665
 C        -1.321069         3.135597         1.538298
 C        -0.658258         3.722787         2.711611
 C         0.821562         3.238008         2.589408
 O         1.103143         3.259095         1.241488
 C        -0.045831         2.757095         0.554675
 H         0.864851         0.286657         1.180230
 H        -2.750401         1.508078        -0.264595
 H        -2.312151        -0.056491         0.369874
 H        -1.918079         1.274966         2.627984
 H        -2.135922         3.793798         1.087870
 H        -0.761801         4.887720         2.586298
 H        -1.132814         3.504828         3.684594
 H         1.513263         3.835420         3.161625
 H         0.798180         2.166329         2.904601
 H        -0.016062         3.231612        -0.469737
