19
Iteration:   478
 O         0.371820         0.293747         0.578817
 C        -0.584125         1.337762         0.691704
 C        -2.055056         1.057503         0.464730
 C        -1.582510         1.669316         1.779089
 C        -1.318076         3.108970         1.458345
 C        -0.668523         3.736363         2.624685
 C         0.738255         3.037910         2.667652
 O         1.102445         3.124737         1.146728
 C        -0.154530         2.814297         0.502292
 H         1.273538         0.576356         0.823461
 H        -2.759186         1.739198        -0.162141
 H        -2.335423        -0.040741         0.541756
 H        -1.834274         1.377565         2.838752
 H        -2.170527         3.723950         1.091095
 H        -0.677243         4.878798         2.485128
 H        -1.304420         3.453709         3.554224
 H         1.528101         3.492018         3.181431
 H         0.544001         1.925098         2.952216
 H        -0.200634         3.140775        -0.549452
