19
Iteration:  2847
 O         0.274586         0.210629         0.649863
 C        -0.596007         1.296296         0.532582
 C        -1.988105         1.021038         0.202745
 C        -1.828629         1.564410         1.570990
 C        -1.351420         3.086031         1.547467
 C        -0.497533         3.501029         2.935750
 C         0.944191         3.755625         2.451422
 O         1.052532         2.938978         1.346714
 C        -0.229488         2.775260         0.606461
 H         1.183572         0.437969         1.044287
 H        -2.456717         1.769466        -0.510191
 H        -2.238869         0.003216         0.261306
 H        -2.435788         1.050358         2.242472
 H        -2.066022         3.892222         1.338453
 H        -0.848561         4.416885         3.393552
 H        -0.388407         2.758962         3.630156
 H         1.330644         4.771561         2.252186
 H         1.582907         3.362039         3.250790
 H        -0.187459         3.241134        -0.384393
