19
Iteration:  2755
 O         0.189506         0.056954         0.539109
 C        -0.542327         1.257915         0.627916
 C        -2.038894         1.161541         0.135796
 C        -1.757334         1.559252         1.566827
 C        -1.309558         2.985668         1.654829
 C        -0.560872         3.522317         2.997831
 C         0.823439         3.889836         2.377314
 O         1.170555         2.970674         1.346258
 C        -0.162298         2.754115         0.643103
 H         0.947687        -0.052890         1.219739
 H        -2.541146         1.838741        -0.612466
 H        -2.138248         0.041484        -0.013356
 H        -1.977133         1.207844         2.648085
 H        -1.989589         3.769388         1.250541
 H        -1.197627         4.356449         3.181046
 H        -0.552272         2.898765         3.840782
 H         0.957504         4.951977         1.989483
 H         1.630191         3.732701         3.158939
 H        -0.176842         3.335107        -0.240182
