19
Iteration:  2223
 O         0.406769         0.269417         0.554362
 C        -0.579809         1.257407         0.671431
 C        -2.012871         1.039792         0.257413
 C        -1.746680         1.553657         1.649157
 C        -1.413152         3.075712         1.602369
 C        -0.555444         3.790119         2.747160
 C         0.904593         3.304687         2.609548
 O         1.083257         3.094078         1.231480
 C        -0.255560         2.750635         0.574337
 H         1.146087         0.574232         1.175885
 H        -2.650180         1.628942        -0.354229
 H        -2.454677        -0.061179         0.245753
 H        -2.241841         0.934849         2.450049
 H        -2.287754         3.701438         1.292187
 H        -0.688898         4.819742         2.532188
 H        -1.091753         3.678251         3.725226
 H         1.594072         4.088096         2.918782
 H         1.169014         2.421662         3.193481
 H        -0.270885         3.235722        -0.461434
