19
Iteration:  1441charge 0 multiplicity 1
 O         0.348971         0.378680         0.667387
 C        -0.614648         1.268469         0.596560
 C        -2.122346         1.099102         0.297349
 C        -1.516544         1.542451         1.733724
 C        -1.337535         3.123862         1.514160
 C        -0.606466         3.697011         2.737697
 C         0.794320         3.448385         2.600003
 O         1.053988         2.866792         1.212288
 C        -0.196643         2.714337         0.533480
 H         1.138847         0.828445         0.896650
 H        -2.608160         1.894801        -0.418448
 H        -2.454905         0.146158         0.094947
 H        -1.606486         0.966005         2.585208
 H        -2.321479         3.453688         1.351052
 H        -0.859283         4.809015         2.765878
 H        -1.079577         3.207063         3.549775
 H         1.527641         4.318615         2.595963
 H         1.112113         2.742623         3.400610
 H         0.052740         3.079679        -0.420170
