19
Iteration:  2005charge 0 multiplicity 1
 O         0.425482         0.342282         0.612731
 C        -0.556524         1.340004         0.600907
 C        -2.078468         1.017206         0.406283
 C        -1.675587         1.599983         1.726214
 C        -1.373531         3.076423         1.551864
 C        -0.692960         3.752690         2.711832
 C         0.813182         3.158466         2.613378
 O         1.067804         3.040973         1.165381
 C        -0.171938         2.801063         0.527716
 H         1.279418         0.856720         0.917955
 H        -2.669484         1.821145        -0.204950
 H        -2.272855         0.031078         0.215597
 H        -1.725609         1.105855         2.623233
 H        -2.157685         3.771147         1.323556
 H        -0.604931         4.778990         2.480622
 H        -1.248410         3.596682         3.642271
 H         1.551879         3.817175         3.062079
 H         0.935611         2.094934         2.957965
 H        -0.000118         3.146240        -0.496846
