19
Iteration:  2591
 O         0.314757         0.174094         0.471750
 C        -0.547154         1.188051         0.689290
 C        -1.975851         1.027989         0.309801
 C        -1.687887         1.666260         1.669028
 C        -1.301600         3.155619         1.550791
 C        -0.684495         3.743270         2.943653
 C         0.881790         3.423643         2.533751
 O         1.054983         3.061323         1.202798
 C        -0.220989         2.715284         0.579858
 H         1.093934         0.504401         0.936854
 H        -2.523222         1.526662        -0.615010
 H        -2.164853        -0.039664         0.343017
 H        -2.113443         1.161930         2.469829
 H        -2.076569         3.797490         1.143928
 H        -0.868601         4.780870         2.942843
 H        -1.108653         3.309837         3.793396
 H         1.392565         4.331319         2.716031
 H         1.334412         2.741053         3.285284
 H        -0.295602         3.176011        -0.494950
