19
Iteration:   615
 O         0.273293         0.134691         0.528471
 C        -0.564211         1.272776         0.632204
 C        -2.066915         1.005182         0.409525
 C        -1.662219         1.696913         1.685128
 C        -1.305752         3.140292         1.528382
 C        -0.662126         3.736400         2.767366
 C         0.787969         3.222204         2.574207
 O         1.093608         3.259893         1.223915
 C        -0.048935         2.725423         0.534832
 H         0.965354         0.317593         1.205316
 H        -2.672522         1.444992        -0.293854
 H        -2.260227        -0.052308         0.408108
 H        -1.854697         1.305824         2.736107
 H        -2.205138         3.752515         1.129677
 H        -0.721913         4.792643         2.634502
 H        -1.141907         3.538017         3.684130
 H         1.617212         3.797897         3.168251
 H         0.750283         2.167864         2.867127
 H         0.071797         3.139342        -0.531478
