19
Iteration:  3936charge 0 multiplicity 1
 O         0.290253         0.236650         0.582052
 C        -0.577235         1.282861         0.633057
 C        -2.004471         1.173937         0.207595
 C        -1.785414         1.488740         1.655855
 C        -1.347466         3.042745         1.615931
 C        -0.573446         3.560951         2.863725
 C         0.926505         3.821797         2.427551
 O         1.030381         2.827790         1.345915
 C        -0.183377         2.702764         0.601082
 H         1.177452         0.536630         0.790367
 H        -2.283201         1.786103        -0.589980
 H        -2.268229         0.169841        -0.107656
 H        -2.246689         0.813059         2.425966
 H        -2.093796         3.893379         1.250258
 H        -1.018829         4.425418         3.392956
 H        -0.598007         2.823336         3.736367
 H         1.069322         4.850753         2.097580
 H         1.878470         3.632050         3.065167
 H        -0.063159         3.242082        -0.328679
