19
Iteration:  3116
 O         0.266704         0.207937         0.628018
 C        -0.618982         1.269391         0.596051
 C        -2.056433         1.188955         0.131753
 C        -1.682853         1.590941         1.614043
 C        -1.276715         3.027900         1.621260
 C        -0.544189         3.427177         2.933405
 C         0.724540         3.867035         2.366477
 O         1.130849         2.839423         1.327769
 C        -0.109009         2.725384         0.627084
 H         0.730415         0.205261         1.518251
 H        -2.555771         1.856710        -0.502294
 H        -2.378546         0.187670         0.020770
 H        -1.825426         1.076440         2.517007
 H        -1.917913         3.870050         1.263503
 H        -1.045874         4.296045         3.354693
 H        -0.362546         2.609450         3.782571
 H         0.637602         4.916913         1.957441
 H         1.516930         3.975593         3.107576
 H        -0.243190         3.175717        -0.361721
