19
Iteration:   242charge 0 multiplicity 1
 O         0.235762         0.095168         0.545954
 C        -0.610025         1.210389         0.540389
 C        -2.029944         1.133823         0.286977
 C        -1.521885         1.651142         1.705945
 C        -1.322181         3.146379         1.544122
 C        -0.647373         3.637923         2.849046
 C         0.846047         3.787010         2.478267
 O         1.058950         2.807452         1.348630
 C        -0.150096         2.725428         0.556234
 H         1.075066         0.410460         1.017108
 H        -2.381965         1.925475        -0.370762
 H        -2.692643         0.342498         0.330531
 H        -1.938881         1.028523         2.574006
 H        -2.202487         3.577866         1.245351
 H        -1.070163         4.542142         3.324615
 H        -0.777340         2.846519         3.593524
 H         1.177787         4.733692         2.197285
 H         1.527019         3.433828         3.212499
 H        -0.055778         3.298990        -0.339795
