19
Iteration:  1304
 O         0.470788         0.426239         0.576925
 C        -0.574739         1.355111         0.755832
 C        -2.024545         0.958848         0.375743
 C        -1.838582         1.687560         1.717567
 C        -1.385195         3.189664         1.458117
 C        -0.642023         3.692136         2.718759
 C         0.799335         3.164244         2.583465
 O         1.131517         2.991166         1.129591
 C        -0.155274         2.712577         0.614758
 H         1.246975         0.716703         1.004571
 H        -2.603451         1.451389        -0.475231
 H        -2.267554        -0.079565         0.505471
 H        -2.209204         1.259159         2.590947
 H        -2.224222         3.804891         1.062310
 H        -0.715188         4.760911         2.717537
 H        -1.114352         3.294053         3.668399
 H         1.502771         3.802299         3.050665
 H         0.919985         2.165460         3.001949
 H        -0.163242         3.132132        -0.494027
