19
Iteration:   451
 O         0.381038         0.268091         0.601845
 C        -0.571476         1.287890         0.735691
 C        -1.943586         1.085067         0.324976
 C        -1.674450         1.640867         1.741924
 C        -1.419241         3.142800         1.622006
 C        -0.559091         3.849078         2.659197
 C         0.785860         3.036970         2.533435
 O         1.013800         3.147985         1.183278
 C        -0.222135         2.722086         0.552399
 H         1.295572         0.554292         0.872545
 H        -2.358714         1.606498        -0.476374
 H        -2.205654         0.050671         0.417965
 H        -2.065785         1.103414         2.568888
 H        -2.196993         3.774145         1.187602
 H        -0.527240         4.891384         2.445874
 H        -0.888062         3.724262         3.660905
 H         1.674251         3.548309         3.046842
 H         0.565529         2.043202         2.822322
 H        -0.211812         2.977348        -0.510972
