19
Iteration:  1335charge 0 multiplicity 1
 O         0.291138         0.178410         0.689136
 C        -0.524274         1.292258         0.517432
 C        -1.973818         0.982918         0.304890
 C        -1.562061         1.610998         1.708816
 C        -1.293991         3.195916         1.549273
 C        -0.569206         3.828255         2.735023
 C         0.742888         3.139800         2.652697
 O         0.970653         3.159156         1.175742
 C        -0.241262         2.788498         0.573761
 H         1.207190         0.537503         0.974409
 H        -2.658379         1.524554        -0.333881
 H        -2.219108         0.001448         0.194357
 H        -1.636490         0.995929         2.521415
 H        -2.244303         3.663451         1.064297
 H        -0.465931         4.921350         2.521852
 H        -1.108964         3.742835         3.732157
 H         1.531123         3.712384         3.082215
 H         0.821890         2.095368         2.946274
 H        -0.207472         3.444481        -0.411346
