19
Iteration:  2818charge 0 multiplicity 1
 O         0.341742         0.344269         0.696261
 C        -0.632994         1.311434         0.579902
 C        -2.042325         1.090109         0.189956
 C        -1.748302         1.662074         1.582966
 C        -1.300941         3.076880         1.598262
 C        -0.579530         3.420188         2.951694
 C         0.783282         3.652843         2.335442
 O         1.122054         2.804870         1.296197
 C        -0.175216         2.744266         0.584173
 H         1.095383         0.741750         1.246144
 H        -2.457966         1.787061        -0.472599
 H        -2.380874         0.077048         0.243061
 H        -2.009531         1.096611         2.444519
 H        -2.071566         3.862459         1.409936
 H        -0.898615         4.433986         3.383590
 H        -0.446473         2.602725         3.820804
 H         0.935314         4.760430         2.035425
 H         1.454332         3.570192         3.208526
 H        -0.138335         3.278193        -0.437251
