19
Iteration:  2192
 O         0.450909         0.453382         0.669731
 C        -0.645954         1.282309         0.644409
 C        -1.980895         1.024099         0.170054
 C        -1.773289         1.542957         1.652630
 C        -1.322097         3.065336         1.630898
 C        -0.544976         3.801269         2.783406
 C         0.883304         3.304920         2.517107
 O         1.019684         2.867756         1.253156
 C        -0.302133         2.754286         0.561950
 H         1.187821         1.021957         0.786438
 H        -2.606582         1.739889        -0.358429
 H        -2.276689        -0.175911         0.200798
 H        -2.134975         0.853845         2.490620
 H        -2.093022         3.784358         1.346805
 H        -0.628556         4.850050         2.668821
 H        -1.034075         3.481276         3.711716
 H         1.586855         4.171400         2.683987
 H         1.204547         2.547617         3.244640
 H        -0.350538         3.381891        -0.434030
