19
Iteration:  4153
 O         0.319945         0.066595         0.573806
 C        -0.543519         1.197689         0.553148
 C        -2.071044         1.186050         0.171616
 C        -1.626750         1.588122         1.570159
 C        -1.379394         3.055415         1.601544
 C        -0.625069         3.659630         2.955556
 C         0.908514         3.778161         2.470041
 O         1.011617         2.922575         1.336568
 C        -0.148199         2.730165         0.736516
 H         1.018788         0.262903        -0.117001
 H        -2.671698         1.992994        -0.261192
 H        -2.362051         0.142664         0.191500
 H        -1.816674         0.990051         2.404286
 H        -2.083725         3.692688         1.149686
 H        -1.042187         4.621923         3.294449
 H        -0.801178         2.934193         3.801465
 H         0.996410         4.736250         2.049406
 H         1.621881         3.288685         3.148829
 H        -0.188022         3.258053        -0.290699
