19
Iteration:  2809charge 0 multiplicity 1
 O         0.335787         0.327273         0.686720
 C        -0.532871         1.330424         0.590219
 C        -1.998952         1.167177         0.247976
 C        -1.784796         1.598171         1.638410
 C        -1.359056         3.109138         1.641856
 C        -0.574827         3.399642         2.912927
 C         0.817795         3.690703         2.363515
 O         1.080674         2.771930         1.281086
 C        -0.148280         2.733051         0.532666
 H         1.157484         0.807269         1.059794
 H        -2.458699         1.708389        -0.560681
 H        -2.484145         0.157600         0.136119
 H        -2.350206         1.076343         2.491211
 H        -1.934073         3.947590         1.212097
 H        -1.008180         4.308436         3.371257
 H        -0.763416         2.584725         3.670552
 H         0.656346         4.651780         1.961818
 H         1.692868         3.593839         3.047830
 H        -0.045768         3.326942        -0.369793
