19
Iteration:  3221
 O         0.293875         0.226332         0.542863
 C        -0.611805         1.293166         0.573607
 C        -2.043953         1.095952         0.247225
 C        -1.671485         1.570986         1.602480
 C        -1.248288         3.098988         1.640915
 C        -0.610935         3.567980         2.886861
 C         0.775172         3.804966         2.421702
 O         1.062671         2.733404         1.398073
 C        -0.119447         2.765611         0.595914
 H         1.064261         0.441847         1.147576
 H        -2.496886         1.854218        -0.497724
 H        -2.143508         0.044226         0.169953
 H        -2.103129         1.064863         2.449622
 H        -2.039912         3.791293         1.421371
 H        -1.032319         4.535563         3.161037
 H        -0.663863         2.826148         3.632408
 H         0.670073         4.712624         1.823284
 H         1.665930         3.781399         3.083026
 H        -0.106101         3.306622        -0.434001
