19
Iteration:  4756charge 0 multiplicity 1
 O         0.151524         0.186509         0.336384
 C        -0.597051         1.257998         0.552949
 C        -2.012734         1.144974         0.199439
 C        -1.555817         1.492779         1.646643
 C        -1.320308         2.963958         1.664424
 C        -0.646364         3.612491         2.915147
 C         0.844657         3.924930         2.358306
 O         1.111968         2.870825         1.508385
 C        -0.109019         2.680370         0.752378
 H         0.836564         0.370174         1.017590
 H        -2.467733         1.939377        -0.388149
 H        -2.386382         0.220615        -0.065811
 H        -1.919149         0.664225         2.431383
 H        -2.046639         3.618398         1.204393
 H        -1.235854         4.410290         3.266414
 H        -0.550888         2.983899         3.804997
 H         0.979535         4.804824         1.753112
 H         1.525967         3.916661         3.194973
 H        -0.041833         3.312829        -0.172708
