19
Iteration:  4128
 O         0.206233         0.254518         0.550298
 C        -0.629193         1.240818         0.612776
 C        -2.029859         1.080568         0.201461
 C        -1.711032         1.541238         1.653221
 C        -1.311905         2.959746         1.597971
 C        -0.559263         3.596064         2.871323
 C         0.854614         3.842661         2.483647
 O         1.130373         2.843696         1.378239
 C        -0.101327         2.762798         0.627542
 H         1.015453         0.559935         0.043720
 H        -2.216989         1.936088        -0.563553
 H        -2.213475        -0.051185         0.085008
 H        -2.283287         0.971302         2.453073
 H        -2.148341         3.702282         1.300000
 H        -1.131203         4.451659         3.170155
 H        -0.700166         2.993266         3.738103
 H         0.913510         4.811656         2.045156
 H         1.496383         3.536263         3.248797
 H        -0.110565         3.319918        -0.311292
