19
Iteration:  3336
 O         0.250688         0.113218         0.447580
 C        -0.559921         1.200804         0.716445
 C        -1.934325         1.081368         0.192054
 C        -1.838859         1.671646         1.615559
 C        -1.325129         3.055814         1.587631
 C        -0.561830         3.613596         2.983052
 C         0.799273         3.798418         2.408186
 O         1.142332         2.916557         1.343373
 C        -0.148360         2.725330         0.625953
 H         0.949705         0.316163         1.089720
 H        -2.393397         1.786354        -0.517843
 H        -2.326514         0.148304         0.244602
 H        -2.188831         1.047337         2.471403
 H        -2.208144         3.754582         1.403987
 H        -1.004409         4.506791         3.356912
 H        -0.563652         2.636837         3.502026
 H         0.829240         4.870039         2.117728
 H         1.583985         3.537480         3.096305
 H         0.015271         3.246984        -0.336222
