19
Iteration:  2883charge 0 multiplicity 1
 O         0.278242         0.159263         0.505445
 C        -0.559355         1.145097         0.692937
 C        -2.004285         1.233455         0.240097
 C        -1.716625         1.572441         1.662208
 C        -1.298226         3.070527         1.559174
 C        -0.607827         3.532490         2.941414
 C         0.794050         3.764047         2.434831
 O         1.123141         2.978771         1.270867
 C        -0.153433         2.651541         0.621027
 H         0.938191         0.373602         1.252784
 H        -2.359415         2.026914        -0.331109
 H        -2.595498         0.359722        -0.107488
 H        -2.312035         1.126258         2.444601
 H        -2.048074         3.766311         1.116872
 H        -1.059540         4.468877         3.398597
 H        -0.782940         2.685453         3.721977
 H         0.952883         4.899048         2.163587
 H         1.566398         3.495959         3.191443
 H        -0.018897         3.043941        -0.462035
