19
Iteration:  1715
 O         0.390465         0.243492         0.678814
 C        -0.601176         1.301092         0.532844
 C        -2.093961         1.025315         0.325319
 C        -1.678633         1.600141         1.638153
 C        -1.346111         3.055203         1.609330
 C        -0.637483         3.780971         2.761165
 C         0.862775         3.376354         2.556494
 O         1.062441         3.029015         1.188650
 C        -0.188845         2.752648         0.583439
 H         1.111957         0.718104         1.242386
 H        -2.638518         1.714817        -0.362849
 H        -2.434434        -0.075399         0.333861
 H        -1.868501         0.906918         2.461942
 H        -2.101483         3.669468         1.124566
 H        -0.629764         4.836696         2.687276
 H        -0.941776         3.512728         3.711764
 H         1.675572         4.102928         2.892016
 H         1.093761         2.371823         3.017596
 H        -0.162333         3.281429        -0.439037
