19
Iteration:  3981charge 0 multiplicity 1
 O         0.287672         0.215137         0.593370
 C        -0.630770         1.251868         0.582512
 C        -2.007882         1.086401         0.160660
 C        -1.837046         1.601131         1.610052
 C        -1.251345         3.033746         1.611620
 C        -0.555030         3.453256         2.974228
 C         0.876324         3.867123         2.389249
 O         1.097936         2.914586         1.347489
 C        -0.143503         2.735751         0.578718
 H         0.608235         0.182149         1.488181
 H        -2.564389         1.833117        -0.313398
 H        -2.311539         0.064107        -0.080267
 H        -2.087673         1.116244         2.520353
 H        -2.085199         3.733983         1.185658
 H        -1.218645         4.223785         3.498137
 H        -0.511245         2.607813         3.721690
 H         0.956082         4.843266         2.014255
 H         1.816904         3.861608         3.056915
 H        -0.028712         3.200816        -0.398918
