19
Iteration:    81charge 0 multiplicity 1
 O         0.240606         0.198181         0.682237
 C        -0.492394         1.310192         0.727125
 C        -1.918836         1.168703         0.289778
 C        -1.697683         1.663900         1.735100
 C        -1.332289         3.080368         1.598065
 C        -0.618977         3.670468         2.736089
 C         0.826199         3.173923         2.490535
 O         1.012346         3.170531         1.086201
 C        -0.169167         2.757212         0.582439
 H         1.256840         0.426565         0.816294
 H        -2.449007         1.681779        -0.468307
 H        -2.008330         0.108947         0.239165
 H        -2.128844         1.286710         2.704361
 H        -2.176102         3.745812         1.169513
 H        -0.715445         4.735996         2.655819
 H        -1.029279         3.338746         3.670148
 H         1.611382         3.747482         3.105693
 H         0.911121         2.188565         2.995511
 H        -0.333833         3.049692        -0.462660
