19
Iteration:  1914charge 0 multiplicity 1
 O         0.347528         0.254063         0.670220
 C        -0.547266         1.268999         0.559624
 C        -2.100605         1.025147         0.341184
 C        -1.675387         1.631734         1.584101
 C        -1.372936         3.152371         1.568412
 C        -0.589510         3.567992         2.819059
 C         0.859530         3.427707         2.580884
 O         1.095485         3.059290         1.141350
 C        -0.197576         2.825229         0.566954
 H         1.000377         0.391589         1.421031
 H        -2.626157         1.515101        -0.481877
 H        -2.358121        -0.122438         0.520608
 H        -1.963413         0.985470         2.535068
 H        -2.307141         3.672048         1.263366
 H        -0.717418         4.583867         2.939600
 H        -0.964611         3.090203         3.687666
 H         1.332955         4.378244         2.901175
 H         1.285289         2.563595         3.123624
 H        -0.131444         3.244623        -0.514070
