19
Iteration:  2386
 O         0.214451         0.124600         0.527083
 C        -0.564657         1.273463         0.721333
 C        -1.923893         1.037533         0.326055
 C        -1.628842         1.616789         1.676655
 C        -1.339658         3.160310         1.555845
 C        -0.656888         3.656137         2.798769
 C         0.838047         3.436242         2.564739
 O         1.074273         3.153400         1.221227
 C        -0.195130         2.767386         0.507282
 H         1.212570         0.166322         0.722298
 H        -2.407879         1.635381        -0.315359
 H        -2.156318        -0.072544         0.275097
 H        -1.695526         1.080492         2.675665
 H        -2.158786         3.781070         1.146091
 H        -0.914292         4.748631         2.826239
 H        -1.073093         3.293073         3.819932
 H         1.628115         4.077762         2.875936
 H         0.930672         2.500764         3.291138
 H        -0.185964         3.072438        -0.471254
