19
Iteration:   797
 O         0.287307         0.168853         0.500767
 C        -0.596443         1.238531         0.664287
 C        -1.996012         1.212245         0.332228
 C        -1.655205         1.524003         1.728578
 C        -1.336790         3.011026         1.541755
 C        -0.623269         3.830917         2.703836
 C         0.811531         3.431226         2.623376
 O         1.074739         3.006842         1.243619
 C        -0.135626         2.709293         0.609764
 H         1.081317         0.426859         0.895737
 H        -2.533637         2.034645        -0.375296
 H        -2.409116         0.155298         0.077327
 H        -1.814265         1.059568         2.744494
 H        -2.110384         3.704202         1.152659
 H        -0.880394         4.963010         2.547489
 H        -1.188152         3.583428         3.607150
 H         1.492457         4.247211         2.798997
 H         1.073714         2.551298         3.223858
 H         0.028461         3.070016        -0.397660
