19
Iteration:  4182
 O         0.239457         0.190413         0.612182
 C        -0.580929         1.294246         0.665353
 C        -2.006395         1.180488         0.144142
 C        -1.691853         1.529454         1.650188
 C        -1.323908         2.976926         1.640932
 C        -0.633923         3.589619         2.911527
 C         0.821232         3.746704         2.469955
 O         1.122597         2.961849         1.309916
 C        -0.075623         2.709318         0.606279
 H         0.435446         0.141039        -0.360694
 H        -2.775133         1.881366        -0.335561
 H        -2.188376         0.070761        -0.023112
 H        -1.734507         0.836007         2.525050
 H        -2.139720         3.713889         1.284755
 H        -1.105542         4.545636         3.116396
 H        -0.783018         2.858462         3.693762
 H         1.049452         4.830900         2.125125
 H         1.530939         3.362289         3.204282
 H        -0.031251         3.098813        -0.400438
