19
Iteration:   518charge 0 multiplicity 1
 O         0.337927         0.305873         0.505077
 C        -0.617740         1.305273         0.634185
 C        -2.046851         0.928181         0.335803
 C        -1.675679         1.630501         1.661203
 C        -1.309040         3.155855         1.605281
 C        -0.633268         3.892658         2.713281
 C         0.882942         3.342573         2.675050
 O         1.125503         2.819626         1.227133
 C        -0.270782         2.810362         0.543367
 H         1.132993         0.753102         1.056653
 H        -2.644112         1.244340        -0.501947
 H        -2.148046        -0.118821         0.430617
 H        -2.013357         1.108414         2.570388
 H        -2.062411         3.746467         1.141473
 H        -0.806968         4.929595         2.652775
 H        -1.079204         3.624239         3.663354
 H         1.744764         4.049325         2.860530
 H         0.866960         2.496542         3.318417
 H        -0.208303         3.470238        -0.299373
