19
Iteration:    66
 O         0.393155         0.303651         0.715598
 C        -0.634243         1.291030         0.761081
 C        -2.063898         1.087319         0.327074
 C        -1.708989         1.619329         1.690634
 C        -1.373026         3.160654         1.487355
 C        -0.607076         3.650882         2.787178
 C         0.839823         3.187187         2.543074
 O         1.119763         3.080150         1.112979
 C        -0.208120         2.767348         0.485167
 H         1.145554         0.796211         0.852383
 H        -2.381457         1.891217        -0.358775
 H        -2.582485         0.106642         0.216198
 H        -1.981540         1.064374         2.545769
 H        -2.141540         3.789274         1.156770
 H        -0.647833         4.752131         2.918965
 H        -0.999596         3.117616         3.667641
 H         1.600196         3.850917         2.897792
 H         1.100733         2.237366         3.010762
 H        -0.101086         3.192101        -0.512275
