19
Iteration:  4434
 O         0.272570         0.125080         0.490634
 C        -0.521332         1.288515         0.600195
 C        -1.953638         1.127023         0.216638
 C        -1.713844         1.539986         1.695560
 C        -1.312034         3.079997         1.651406
 C        -0.667778         3.597839         2.830479
 C         0.877395         3.815250         2.464985
 O         1.066380         2.885713         1.442783
 C        -0.191753         2.754027         0.612155
 H         0.753699         0.128734        -0.340070
 H        -2.531172         1.984894        -0.314485
 H        -2.310376         0.071896        -0.067230
 H        -1.852680         0.860959         2.587554
 H        -2.160004         3.687630         1.235168
 H        -1.175298         4.467999         3.345392
 H        -0.705407         2.786437         3.622484
 H         1.046146         4.840296         2.000793
 H         1.539795         3.417181         3.207888
 H        -0.079955         3.242899        -0.425527
