19
Iteration:    23charge 0 multiplicity 1
 O         0.367471         0.448293         0.645797
 C        -0.655507         1.388484         0.689637
 C        -1.944209         0.874024         0.266254
 C        -1.810268         1.690469         1.671722
 C        -1.433751         3.257319         1.572197
 C        -0.544029         3.743206         2.764359
 C         0.912055         3.179867         2.585082
 O         1.090100         2.767318         1.177660
 C        -0.282200         2.835598         0.502824
 H         1.263497         1.017810         0.979179
 H        -2.457046         1.246331        -0.585502
 H        -2.037653        -0.205600         0.482487
 H        -2.024841         1.266874         2.619286
 H        -2.187622         3.990352         1.274090
 H        -0.446315         4.822567         2.826549
 H        -0.885882         3.411253         3.750889
 H         1.667749         3.930102         2.827489
 H         1.127757         2.275889         3.132622
 H        -0.101757         3.266622        -0.479176
