19
Iteration:   929
 O         0.272455         0.204409         0.604572
 C        -0.549683         1.299576         0.751778
 C        -1.883816         0.958727         0.277004
 C        -1.664399         1.653789         1.689153
 C        -1.345791         3.169845         1.541396
 C        -0.583640         3.803559         2.756689
 C         0.800994         3.141594         2.574938
 O         1.010795         3.177929         1.163530
 C        -0.211722         2.784201         0.569383
 H         1.142301         0.218002         1.184854
 H        -2.376412         1.602118        -0.575226
 H        -2.159698        -0.106848         0.395918
 H        -2.217221         1.174086         2.472604
 H        -2.068167         3.918806         1.145349
 H        -0.640123         4.941989         2.594522
 H        -1.024338         3.440891         3.665642
 H         1.657434         3.629997         3.033099
 H         0.852199         2.071592         2.845511
 H        -0.292410         3.363905        -0.345819
