19
Iteration:  2967
 O         0.382695         0.205122         0.438104
 C        -0.683796         1.199573         0.645360
 C        -2.073989         1.259619         0.192460
 C        -1.777957         1.504146         1.792499
 C        -1.350919         3.073185         1.623072
 C        -0.563738         3.593179         2.804035
 C         0.864982         3.890057         2.349248
 O         1.075139         2.802726         1.448160
 C        -0.089137         2.626368         0.649002
 H         1.071072         0.527940         0.986169
 H        -2.431971         2.062339        -0.570316
 H        -2.367038         0.190897        -0.121094
 H        -2.159487         0.957000         2.586060
 H        -2.103794         3.687369         1.129282
 H        -1.131357         4.398071         3.321792
 H        -0.514737         2.817657         3.491878
 H         1.015805         4.901851         1.966057
 H         1.371698         3.629430         3.285132
 H         0.170212         3.036491        -0.286946
