19
Iteration:  3633charge 0 multiplicity 1
 O         0.302904         0.183809         0.527190
 C        -0.658547         1.165612         0.654697
 C        -1.981329         1.142927         0.127169
 C        -1.773064         1.563519         1.673621
 C        -1.312869         3.020146         1.584322
 C        -0.578299         3.526442         2.915389
 C         0.821498         3.790522         2.428221
 O         1.131382         2.894846         1.345166
 C        -0.130215         2.756734         0.688111
 H         1.046243         0.741905         0.820682
 H        -2.196478         1.954193        -0.705896
 H        -2.353117         0.101406         0.068666
 H        -2.401746         1.431288         2.579006
 H        -2.110916         3.660318         1.146329
 H        -1.034674         4.487106         3.217251
 H        -0.797028         3.002263         3.830516
 H         0.872458         4.775498         2.002448
 H         1.649049         3.792545         3.117685
 H        -0.115145         3.286176        -0.256830
