19
Iteration:   482
 O         0.353539         0.295110         0.580986
 C        -0.568747         1.319080         0.652605
 C        -2.065173         1.060738         0.474343
 C        -1.552896         1.689054         1.760261
 C        -1.308740         3.127594         1.472300
 C        -0.673433         3.734327         2.623754
 C         0.749872         3.041638         2.644655
 O         1.080660         3.115195         1.185602
 C        -0.193262         2.798210         0.507482
 H         1.284403         0.631476         0.828080
 H        -2.662059         1.608349        -0.206020
 H        -2.284202         0.009674         0.646471
 H        -1.807528         1.364773         2.746931
 H        -2.172376         3.713056         0.985555
 H        -0.676822         4.797916         2.511455
 H        -1.208171         3.395453         3.468775
 H         1.608538         3.530990         3.219039
 H         0.619935         2.046296         3.087707
 H        -0.146993         3.197013        -0.550313
