19
Iteration:  2816
 O         0.338503         0.345880         0.697761
 C        -0.595109         1.327819         0.577284
 C        -2.031385         1.101376         0.209718
 C        -1.757022         1.641155         1.603899
 C        -1.315615         3.086883         1.607541
 C        -0.578918         3.410948         2.950588
 C         0.785677         3.647560         2.329119
 O         1.116776         2.796472         1.295197
 C        -0.169116         2.731605         0.569478
 H         1.070150         0.746073         1.176443
 H        -2.476165         1.783210        -0.527695
 H        -2.431690         0.147078         0.215098
 H        -2.093604         1.121896         2.403500
 H        -2.033937         3.910818         1.360626
 H        -0.921226         4.418040         3.367610
 H        -0.498898         2.615925         3.811487
 H         0.859490         4.809803         2.027284
 H         1.458445         3.583248         3.186361
 H        -0.127250         3.306626        -0.447150
