19
Iteration:  2065
 O         0.416351         0.331800         0.556654
 C        -0.598956         1.301861         0.556407
 C        -2.044043         1.045869         0.335252
 C        -1.764067         1.596465         1.690547
 C        -1.341149         3.041928         1.571657
 C        -0.613249         3.751446         2.680268
 C         0.918661         3.308490         2.595617
 O         1.083287         2.969799         1.278938
 C        -0.235779         2.802827         0.591649
 H         1.069924         0.805104         1.033286
 H        -2.684636         1.420063        -0.387397
 H        -2.150223        -0.096718         0.385024
 H        -2.107516         1.068539         2.688146
 H        -2.192146         3.717365         1.276008
 H        -0.920573         4.915213         2.631965
 H        -1.222273         3.402973         3.549697
 H         1.587369         4.149850         2.922905
 H         1.116803         2.473112         3.278604
 H        -0.191862         3.232671        -0.377401
