19
Iteration:  4704
 O         0.281310         0.154026         0.338632
 C        -0.560637         1.239259         0.738116
 C        -1.961346         1.199808         0.177788
 C        -1.742467         1.611510         1.648010
 C        -1.340894         3.007892         1.693636
 C        -0.567619         3.553376         2.875275
 C         0.782517         3.860465         2.406560
 O         1.078715         2.873938         1.415524
 C        -0.123266         2.683862         0.646214
 H         1.107016         0.301706         0.889758
 H        -2.467751         1.805118        -0.572925
 H        -2.351728         0.212167         0.134638
 H        -2.169392         0.890788         2.413910
 H        -2.252675         3.689089         1.425696
 H        -1.155752         4.333140         3.459407
 H        -0.536086         2.740154         3.601572
 H         0.931872         4.853430         1.921988
 H         1.509833         3.739432         3.359074
 H        -0.058938         3.205004        -0.296284
