19
Iteration:  3372
 O         0.300914         0.238081         0.582175
 C        -0.649697         1.230194         0.623482
 C        -2.063326         1.161706         0.170753
 C        -1.784979         1.548729         1.590302
 C        -1.295650         3.046014         1.600715
 C        -0.505359         3.549718         2.879889
 C         0.846309         3.869954         2.372266
 O         1.081722         2.841056         1.428318
 C        -0.112548         2.674767         0.625868
 H         1.132682         0.530455         0.954507
 H        -2.558436         1.896035        -0.466771
 H        -2.536068         0.182616        -0.013719
 H        -2.127709         1.097245         2.502918
 H        -2.220420         3.554320         1.200043
 H        -1.085321         4.072522         3.725372
 H        -0.287834         2.614231         3.490127
 H         0.922565         4.872559         1.889920
 H         1.563985         3.894445         3.156246
 H         0.008170         3.138084        -0.329874
