19
Iteration:  1150charge 0 multiplicity 1
 O         0.362755         0.298746         0.672755
 C        -0.629104         1.285100         0.513447
 C        -2.063765         1.021648         0.296542
 C        -1.605457         1.543918         1.596737
 C        -1.347611         3.121041         1.623788
 C        -0.574502         3.858381         2.793611
 C         0.828494         3.300659         2.582625
 O         1.030978         2.950906         1.199630
 C        -0.204806         2.776112         0.589790
 H         1.058247         0.701689         1.132200
 H        -2.625014         1.506830        -0.594311
 H        -2.170373        -0.143245         0.347795
 H        -1.718220         1.044661         2.595543
 H        -2.254833         3.585296         1.237071
 H        -0.712123         4.922177         2.498992
 H        -1.084065         3.828164         3.763897
 H         1.580947         4.061677         2.844216
 H         0.925850         2.419143         3.291628
 H         0.010420         3.295533        -0.404023
