19
Iteration:  1475
 O         0.401490         0.246152         0.484824
 C        -0.555080         1.241144         0.668187
 C        -1.943443         0.986769         0.315098
 C        -1.846115         1.653205         1.712667
 C        -1.374150         3.119090         1.560169
 C        -0.571394         3.779515         2.731235
 C         0.887691         3.416446         2.592124
 O         1.014726         2.978780         1.234057
 C        -0.235698         2.721706         0.613716
 H         1.266417         0.499752         0.862514
 H        -2.420332         1.513770        -0.595205
 H        -2.118622        -0.088065         0.351811
 H        -2.324112         1.303693         2.587163
 H        -2.186102         3.827211         1.352789
 H        -0.549714         4.934713         2.753014
 H        -0.974967         3.504798         3.735824
 H         1.561147         4.308573         2.799794
 H         1.073808         2.563440         3.328766
 H        -0.179801         3.115149        -0.370207
