19
Iteration:  2680
 O         0.251727         0.229310         0.425256
 C        -0.617713         1.252993         0.674570
 C        -2.035170         1.018613         0.178959
 C        -1.774284         1.553311         1.570742
 C        -1.260564         3.102781         1.705784
 C        -0.550254         3.605136         2.922927
 C         0.850007         3.966104         2.316254
 O         1.063319         2.757653         1.483573
 C        -0.149072         2.667775         0.659049
 H         1.046862         0.416941         0.884997
 H        -2.326735         1.892114        -0.502780
 H        -2.194798        -0.072247         0.037931
 H        -2.153793         0.954288         2.466841
 H        -1.993845         3.815850         1.355130
 H        -1.106756         4.431623         3.282850
 H        -0.393912         2.883877         3.664242
 H         1.146510         4.834470         1.767071
 H         1.573270         3.920525         3.150470
 H        -0.048352         3.217826        -0.350521
