19
Iteration:  4689
 O         0.273426         0.225870         0.447041
 C        -0.558914         1.263081         0.615034
 C        -1.997019         1.127954         0.233380
 C        -1.832245         1.523380         1.655365
 C        -1.324473         3.059113         1.607318
 C        -0.617836         3.471465         2.965851
 C         0.847379         3.845492         2.425298
 O         1.147841         2.891424         1.359446
 C        -0.155333         2.690997         0.681407
 H         1.198158         0.553046         0.522325
 H        -2.245449         1.906937        -0.499213
 H        -2.215641         0.099870        -0.125054
 H        -2.413232         1.194547         2.634086
 H        -1.906681         3.840013         1.118031
 H        -1.038132         4.352748         3.326005
 H        -0.799169         2.642127         3.762870
 H         0.797780         4.868652         2.035722
 H         1.701318         3.755725         3.048967
 H        -0.008384         3.220007        -0.294367
