19
Iteration:    32charge 0 multiplicity 1
 O         0.395059         0.504263         0.689647
 C        -0.636517         1.328035         0.642519
 C        -1.988631         0.897896         0.329314
 C        -1.829947         1.705139         1.600606
 C        -1.312930         3.180261         1.553003
 C        -0.511898         3.688035         2.797288
 C         0.902848         3.178467         2.524427
 O         1.014752         2.776518         1.186967
 C        -0.240796         2.878806         0.545802
 H         1.221126         1.141043         0.989177
 H        -2.585982         1.164892        -0.616319
 H        -2.236121        -0.114258         0.666011
 H        -2.255214         1.209641         2.482795
 H        -1.975517         3.905975         1.185026
 H        -0.544103         4.817369         2.699517
 H        -0.990118         3.457766         3.791250
 H         1.576876         4.002198         2.695142
 H         1.030596         2.305369         3.199952
 H        -0.234258         3.436235        -0.404013
