19
Iteration:  4740charge 0 multiplicity 1
 O         0.212008         0.143040         0.383758
 C        -0.566694         1.334919         0.515116
 C        -2.101342         1.191105         0.173544
 C        -1.655284         1.417047         1.613350
 C        -1.281475         2.920391         1.753670
 C        -0.585974         3.651264         2.943754
 C         0.755608         3.928067         2.399170
 O         1.131675         2.822007         1.484635
 C        -0.041718         2.760793         0.634531
 H         0.617031        -0.139907         1.251111
 H        -2.716006         1.935667        -0.416454
 H        -2.213120         0.042035         0.063809
 H        -1.721474         0.788490         2.384976
 H        -2.192850         3.495663         1.442411
 H        -1.135091         4.669773         3.021599
 H        -0.649407         2.932427         3.836770
 H         0.684177         4.938887         1.841603
 H         1.599012         4.060823         3.136361
 H         0.104601         3.479900        -0.221891
