19
Iteration:  1442charge 0 multiplicity 1
 O         0.357955         0.381243         0.664409
 C        -0.624011         1.254544         0.593646
 C        -2.126826         1.110607         0.296002
 C        -1.519727         1.546637         1.731463
 C        -1.330530         3.121907         1.515791
 C        -0.618096         3.697671         2.737678
 C         0.799972         3.450909         2.596386
 O         1.064163         2.866612         1.205818
 C        -0.202002         2.709616         0.540531
 H         1.188835         0.824287         0.930278
 H        -2.609083         1.859523        -0.408263
 H        -2.470068         0.160993         0.115162
 H        -1.608711         0.975505         2.575705
 H        -2.357639         3.446038         1.354104
 H        -0.851031         4.829748         2.775913
 H        -1.117108         3.204189         3.575470
 H         1.523601         4.322967         2.612345
 H         1.108325         2.733692         3.431455
 H         0.044731         3.071873        -0.393143
