19
Iteration:  2069
 O         0.399360         0.328457         0.557277
 C        -0.602889         1.297377         0.586740
 C        -2.061578         1.062082         0.354083
 C        -1.719657         1.538135         1.681465
 C        -1.332190         3.049362         1.582344
 C        -0.642543         3.742034         2.678732
 C         0.909554         3.321550         2.628894
 O         1.058555         2.990249         1.242198
 C        -0.191406         2.799620         0.597258
 H         1.112934         0.725503         1.173733
 H        -2.689354         1.677375        -0.449566
 H        -2.133875         0.037656         0.323600
 H        -2.106513         1.073420         2.550494
 H        -2.171657         3.694738         1.246821
 H        -0.872090         4.733757         2.448450
 H        -1.187394         3.514920         3.605124
 H         1.651719         4.087258         2.808458
 H         1.084389         2.442586         3.274478
 H        -0.172301         3.290871        -0.457488
