19
Iteration:  2075
 O         0.379896         0.324994         0.561373
 C        -0.591566         1.298418         0.637331
 C        -2.079254         1.094441         0.324082
 C        -1.649339         1.514204         1.676167
 C        -1.344296         3.044587         1.580882
 C        -0.655783         3.728277         2.715881
 C         0.856747         3.335934         2.655813
 O         1.039619         3.013244         1.195916
 C        -0.156161         2.771045         0.570100
 H         1.053297         0.557388         1.167361
 H        -2.526704         1.776116        -0.296019
 H        -2.292072        -0.033820         0.202255
 H        -2.075029         0.960537         2.592347
 H        -2.162534         3.653568         1.151837
 H        -0.668453         4.844377         2.309507
 H        -1.046011         3.668652         3.751005
 H         1.675170         4.083703         2.790603
 H         1.056124         2.434693         3.261121
 H        -0.139308         3.299939        -0.340905
