19
Iteration:  2879charge 0 multiplicity 1
 O         0.281999         0.163952         0.512020
 C        -0.581827         1.174578         0.710860
 C        -1.996212         1.197261         0.230316
 C        -1.706130         1.573885         1.677782
 C        -1.284318         3.114152         1.548862
 C        -0.654592         3.503044         2.970891
 C         0.813894         3.768416         2.439980
 O         1.139324         2.977411         1.250298
 C        -0.170575         2.653207         0.623358
 H         0.986784         0.312660         1.143356
 H        -2.311440         2.074840        -0.480610
 H        -2.586563         0.371597        -0.057660
 H        -2.331677         0.974860         2.316387
 H        -1.982722         3.859725         1.158658
 H        -1.006616         4.441726         3.358269
 H        -0.792746         2.835983         3.716139
 H         0.937125         4.726210         2.086670
 H         1.565896         3.476939         3.151075
 H        -0.107604         2.940630        -0.381000
