19
Iteration:  2716
 O         0.210849         0.041645         0.417053
 C        -0.558571         1.194383         0.677043
 C        -2.053317         1.215280         0.237504
 C        -1.690881         1.575794         1.629871
 C        -1.223375         3.021733         1.632843
 C        -0.633212         3.530873         2.904145
 C         0.775878         3.990317         2.373095
 O         1.099404         2.918048         1.423562
 C        -0.082836         2.660646         0.633098
 H         0.956544         0.051173         0.993881
 H        -2.372987         2.047341        -0.400486
 H        -2.581130         0.283840        -0.142561
 H        -2.034986         1.017239         2.524880
 H        -1.846528         3.850963         1.286482
 H        -1.069238         4.434343         3.389840
 H        -0.409552         2.800368         3.739129
 H         0.673315         4.971054         1.991110
 H         1.490122         3.876685         3.163035
 H        -0.023897         3.129238        -0.413086
