19
Iteration:  2067
 O         0.409071         0.330178         0.557735
 C        -0.601857         1.299154         0.570490
 C        -2.053423         1.053838         0.347427
 C        -1.741932         1.565485         1.683525
 C        -1.333775         3.044320         1.578460
 C        -0.627996         3.745487         2.676245
 C         0.917680         3.313837         2.612040
 O         1.070498         2.980766         1.261722
 C        -0.213232         2.803483         0.597418
 H         1.075927         0.759657         1.101002
 H        -2.695539         1.556396        -0.427683
 H        -2.129398        -0.003459         0.355271
 H        -2.120186         1.062309         2.635957
 H        -2.193172         3.714748         1.263755
 H        -0.916748         4.829973         2.533146
 H        -1.219637         3.458437         3.569560
 H         1.620847         4.113520         2.861902
 H         1.099552         2.463283         3.272623
 H        -0.184750         3.262418        -0.435343
