19
Iteration:  3890
 O         0.284745         0.142346         0.416922
 C        -0.537194         1.281604         0.627880
 C        -2.011161         1.116858         0.292810
 C        -1.688303         1.622511         1.636175
 C        -1.340562         3.054649         1.527870
 C        -0.559040         3.587443         2.883185
 C         0.830371         3.783577         2.469931
 O         1.017855         2.881486         1.406649
 C        -0.131145         2.723746         0.583697
 H         0.934546         0.232261         1.132604
 H        -2.719662         1.608624        -0.373145
 H        -2.293066         0.090348         0.358767
 H        -2.093464         1.150913         2.578040
 H        -2.196301         3.767966         1.263189
 H        -0.957281         4.436259         3.436883
 H        -0.710347         2.750705         3.661464
 H         1.052797         4.815566         2.179798
 H         1.513447         3.619476         3.320582
 H         0.023551         3.194116        -0.368337
