19
Iteration:  1826
 O         0.268966         0.201493         0.546099
 C        -0.549644         1.342974         0.672356
 C        -1.931488         1.023039         0.324875
 C        -1.593080         1.621191         1.762896
 C        -1.439784         3.122891         1.546865
 C        -0.647365         3.753854         2.738271
 C         0.819505         3.286062         2.583732
 O         1.042574         3.064103         1.214085
 C        -0.162546         2.793023         0.530308
 H         1.180477         0.293290         0.996924
 H        -2.387179         1.522674        -0.591298
 H        -2.112960         0.001729         0.482321
 H        -1.778924         1.157206         2.695654
 H        -2.322818         3.658565         1.229710
 H        -0.613599         4.783265         2.608758
 H        -1.152256         3.587209         3.631442
 H         1.599834         3.996612         2.935066
 H         0.960622         2.301233         3.079657
 H        -0.158128         3.236005        -0.513724
