19
Iteration:   526
 O         0.325320         0.363129         0.501885
 C        -0.663567         1.278586         0.612441
 C        -2.028053         0.990454         0.323471
 C        -1.709725         1.586003         1.700877
 C        -1.348101         3.083041         1.561985
 C        -0.586955         3.875501         2.692475
 C         0.875009         3.372497         2.578224
 O         1.121881         2.835978         1.301356
 C        -0.213307         2.759675         0.625296
 H         1.193699         0.728152         0.988332
 H        -2.495876         1.425312        -0.512287
 H        -2.174636        -0.042242         0.528486
 H        -2.073781         1.000503         2.497519
 H        -2.212345         3.738024         1.158774
 H        -0.629942         4.940998         2.511790
 H        -0.962536         3.662785         3.655664
 H         1.621672         4.206817         2.890086
 H         1.036482         2.496447         3.240418
 H        -0.211759         3.403950        -0.318737
