19
Iteration:  2366charge 0 multiplicity 1
 O         0.340509         0.237953         0.585325
 C        -0.607473         1.297597         0.571906
 C        -2.004873         1.043469         0.334999
 C        -1.713820         1.558443         1.684901
 C        -1.318482         3.114325         1.571514
 C        -0.655640         3.739550         2.765481
 C         0.912432         3.406579         2.608227
 O         1.056391         2.967744         1.198334
 C        -0.202272         2.807566         0.577843
 H         1.118074         0.573253         1.058383
 H        -2.580265         1.491311        -0.488444
 H        -2.197277         0.018055         0.416109
 H        -2.058456         0.863432         2.422639
 H        -2.232975         3.601128         1.134385
 H        -0.665311         4.811918         2.862924
 H        -1.096969         3.365469         3.743193
 H         1.442576         4.395504         2.625877
 H         1.353612         2.645274         3.278481
 H        -0.201369         3.431350        -0.342186
