19
Iteration:  1757
 O         0.421837         0.391295         0.521105
 C        -0.546498         1.301675         0.674816
 C        -1.974723         1.032316         0.417888
 C        -1.700483         1.632260         1.748602
 C        -1.406106         3.159563         1.592486
 C        -0.655758         3.873609         2.677404
 C         0.766789         3.162840         2.535159
 O         1.078275         2.856876         1.190878
 C        -0.206039         2.747955         0.604494
 H         1.203607         0.873706         0.659632
 H        -2.501139         1.363820        -0.455858
 H        -2.007411        -0.112056         0.355175
 H        -2.058790         1.184698         2.722288
 H        -2.237385         3.800869         1.133210
 H        -0.733389         4.957156         2.516473
 H        -1.009309         3.638979         3.658291
 H         1.570074         3.895304         2.839969
 H         0.724787         2.316212         3.209076
 H        -0.126576         3.286751        -0.409501
