19
Iteration:  2598charge 0 multiplicity 1
 O         0.349710         0.136249         0.466492
 C        -0.583383         1.233673         0.676468
 C        -1.988765         1.009963         0.276133
 C        -1.776435         1.665424         1.646696
 C        -1.321190         3.130289         1.633922
 C        -0.629464         3.720262         2.885159
 C         0.867237         3.513012         2.531586
 O         1.083893         2.999959         1.232489
 C        -0.170263         2.793631         0.564655
 H         1.138160         0.472798         0.853904
 H        -2.487372         1.286622        -0.561010
 H        -2.393168        -0.076397         0.438683
 H        -2.023206         1.107542         2.617526
 H        -2.165292         3.628074         1.074130
 H        -0.748074         4.831018         3.157822
 H        -1.156066         3.260112         3.793376
 H         1.389097         4.547063         2.580153
 H         1.187805         2.758640         3.268256
 H        -0.298244         3.307840        -0.355955
