19
Iteration:   550charge 0 multiplicity 1
 O         0.446321         0.228709         0.470936
 C        -0.624222         1.193799         0.713195
 C        -2.110037         1.220211         0.316160
 C        -1.691623         1.555024         1.717228
 C        -1.327887         3.029888         1.606519
 C        -0.649127         3.855675         2.683537
 C         0.898348         3.464573         2.673672
 O         1.054203         2.871380         1.264424
 C        -0.229189         2.674963         0.533603
 H         1.204601         0.655885         0.741302
 H        -2.427748         2.057822        -0.231419
 H        -2.373702         0.265250        -0.006720
 H        -2.021647         1.008516         2.622027
 H        -2.169085         3.679707         1.247336
 H        -0.704566         4.820310         2.307998
 H        -1.192955         3.818131         3.594400
 H         1.642446         4.382616         2.790446
 H         1.213728         2.692398         3.344838
 H        -0.223023         3.175394        -0.469877
