19
Iteration:  4120
 O         0.235650         0.255401         0.532147
 C        -0.651581         1.274637         0.647291
 C        -1.996010         1.111062         0.203500
 C        -1.700497         1.563532         1.625039
 C        -1.330604         2.962449         1.535255
 C        -0.601539         3.522042         2.832099
 C         0.923760         3.843399         2.440684
 O         1.057380         2.850626         1.396583
 C        -0.121476         2.716218         0.731868
 H         1.120216         0.616941         0.247689
 H        -2.532762         1.818805        -0.426256
 H        -2.342035         0.066178         0.122504
 H        -2.171675         1.185092         2.493590
 H        -2.060463         3.536024         1.048141
 H        -1.027867         4.433255         3.257820
 H        -0.474714         2.822736         3.701707
 H         1.059047         4.897522         2.161902
 H         1.679529         3.810358         3.247028
 H        -0.055635         3.284342        -0.264241
