19
Iteration:  2344
 O         0.480039         0.432010         0.587700
 C        -0.663869         1.247947         0.633370
 C        -2.138942         1.023376         0.240471
 C        -1.669664         1.594691         1.674641
 C        -1.355274         3.057250         1.612012
 C        -0.564968         3.785469         2.744045
 C         0.855636         3.414130         2.567842
 O         1.034005         2.853875         1.249902
 C        -0.210644         2.670817         0.558254
 H         1.191362         0.921469         1.054842
 H        -2.604327         1.802580        -0.372500
 H        -2.581316         0.020375         0.045308
 H        -1.978205         1.193229         2.661791
 H        -2.315540         3.659524         1.343545
 H        -0.729641         4.866727         2.769834
 H        -0.717951         3.521004         3.868476
 H         1.532429         4.298289         2.692331
 H         1.121340         2.586399         3.252137
 H        -0.018039         3.125856        -0.456899
