19
Iteration:  2746charge 0 multiplicity 1
 O         0.125647         0.041001         0.530567
 C        -0.534167         1.258739         0.636553
 C        -1.970396         1.178971         0.197753
 C        -1.670631         1.520737         1.581186
 C        -1.309040         3.031090         1.681503
 C        -0.588536         3.519416         2.883683
 C         0.789393         3.893856         2.387916
 O         1.113942         2.966823         1.363078
 C        -0.112743         2.769104         0.634875
 H         0.916000        -0.118538         1.143707
 H        -2.378939         2.027413        -0.460240
 H        -2.366178         0.084825        -0.051164
 H        -1.978192         0.758023         2.490019
 H        -1.985707         3.825806         1.309734
 H        -1.014139         4.394415         3.330272
 H        -0.513783         2.785512         3.632053
 H         0.899772         5.057783         2.044230
 H         1.572906         3.764290         3.190995
 H        -0.084871         3.322637        -0.336648
