19
Iteration:  1915
 O         0.351381         0.255691         0.666061
 C        -0.557537         1.266978         0.565255
 C        -2.104798         1.032599         0.348681
 C        -1.680531         1.628096         1.582330
 C        -1.369869         3.150116         1.556802
 C        -0.590376         3.567396         2.822060
 C         0.858922         3.429330         2.585753
 O         1.094758         3.064115         1.139751
 C        -0.194008         2.824701         0.564259
 H         1.019818         0.384153         1.442516
 H        -2.636867         1.523480        -0.479673
 H        -2.326064        -0.132647         0.525143
 H        -1.959930         0.968524         2.540836
 H        -2.280174         3.646562         1.232131
 H        -0.697378         4.571759         2.941930
 H        -0.958273         3.103719         3.714764
 H         1.311310         4.368903         2.913521
 H         1.298839         2.541772         3.105821
 H        -0.098433         3.223177        -0.508036
