19
Iteration:  2723
 O         0.174271         0.045456         0.452521
 C        -0.584759         1.183323         0.634124
 C        -2.007455         1.278791         0.179483
 C        -1.587009         1.556639         1.701002
 C        -1.295963         2.993869         1.566018
 C        -0.596490         3.544583         2.964349
 C         0.779676         3.976471         2.406734
 O         1.092633         2.942098         1.418709
 C        -0.122882         2.632450         0.602375
 H         0.930439         0.013411         1.039180
 H        -2.405804         2.119736        -0.510235
 H        -2.380535         0.223127        -0.044070
 H        -2.050074         1.240701         2.738732
 H        -2.070563         3.663620         1.128965
 H        -1.234977         4.266801         3.425038
 H        -0.456037         2.732932         3.607755
 H         0.855364         5.082200         1.935542
 H         1.663191         3.884579         3.125133
 H         0.005858         3.065749        -0.400408
