19
Iteration:  1604
 O         0.463399         0.352196         0.660491
 C        -0.571175         1.262782         0.712676
 C        -2.019542         1.054986         0.299878
 C        -1.679083         1.670420         1.693381
 C        -1.394561         3.104978         1.569047
 C        -0.666077         3.777927         2.751362
 C         0.850871         3.198454         2.517140
 O         1.055679         2.981935         1.116466
 C        -0.238837         2.722106         0.576714
 H         1.257515         0.785007         0.870683
 H        -2.465467         1.841392        -0.357913
 H        -2.659580         0.112971         0.359194
 H        -1.963275         1.118035         2.604265
 H        -2.212486         3.618688         1.081983
 H        -0.704525         4.833656         2.901670
 H        -1.073390         3.312765         3.584820
 H         1.519322         4.028286         2.897791
 H         0.977154         2.358204         3.267403
 H        -0.204448         3.244748        -0.455654
