19
Iteration:  1345
 O         0.273057         0.117786         0.675822
 C        -0.506819         1.284010         0.624440
 C        -1.982795         1.093233         0.326910
 C        -1.488375         1.567770         1.651667
 C        -1.369297         3.112796         1.629215
 C        -0.667367         3.900271         2.726898
 C         0.767248         3.156946         2.632117
 O         0.975772         3.144469         1.135486
 C        -0.184897         2.835827         0.522721
 H         1.271019         0.325211         0.835899
 H        -2.408345         1.774436        -0.366592
 H        -2.130688         0.105186         0.248166
 H        -1.455110         0.961681         2.489133
 H        -2.187656         3.711409         1.078529
 H        -0.572051         5.020505         2.641700
 H        -1.092994         3.630606         3.724304
 H         1.681906         3.511452         3.095555
 H         0.518328         2.159664         3.026543
 H        -0.273059         3.297492        -0.490003
