19
Iteration:   224charge 0 multiplicity 1
 O         0.329169         0.208381         0.553846
 C        -0.529976         1.312221         0.651936
 C        -2.036656         1.159394         0.310307
 C        -1.655921         1.627677         1.654467
 C        -1.329391         3.108122         1.598430
 C        -0.614958         3.675547         2.846520
 C         0.847994         3.563948         2.400155
 O         0.973603         2.726074         1.338133
 C        -0.196416         2.783422         0.541442
 H         1.057944         0.368304         1.236289
 H        -2.600689         1.738986        -0.389919
 H        -2.148959         0.074377         0.220176
 H        -1.800816         1.171356         2.652176
 H        -1.987319         3.903051         1.128704
 H        -0.895898         4.718696         2.873203
 H        -0.837700         3.109733         3.765182
 H         1.086338         4.663858         2.089414
 H         1.561616         3.277475         3.165060
 H         0.049877         3.344830        -0.418353
