19
Iteration:  4081
 O         0.305553         0.229469         0.528410
 C        -0.541719         1.227852         0.588375
 C        -2.008267         1.150886         0.136002
 C        -1.680538         1.614973         1.622905
 C        -1.270975         3.055125         1.652681
 C        -0.579225         3.481775         2.964477
 C         0.830557         3.845501         2.351658
 O         1.029864         2.851802         1.373058
 C        -0.160452         2.697554         0.662237
 H         0.614599        -0.087203         1.396392
 H        -2.540466         1.770687        -0.613270
 H        -2.452821         0.221150         0.403480
 H        -2.179207         1.181926         2.490766
 H        -2.015464         3.825204         1.194440
 H        -1.142549         4.393452         3.355656
 H        -0.813150         2.779553         3.771538
 H         0.676712         4.788386         1.797787
 H         1.787223         3.783343         2.931272
 H        -0.216317         3.250539        -0.259774
