19
Iteration:  3033charge 0 multiplicity 1
 O         0.288576         0.229340         0.538513
 C        -0.629045         1.258814         0.606566
 C        -2.083076         1.090587         0.272568
 C        -1.673160         1.580310         1.685737
 C        -1.280742         3.071810         1.520225
 C        -0.633796         3.514032         2.851420
 C         0.859381         3.698216         2.473191
 O         1.092741         2.932014         1.336677
 C        -0.097781         2.778250         0.584940
 H         0.686165         0.461026         1.424285
 H        -2.613058         1.784308        -0.443711
 H        -2.307811        -0.097748         0.184024
 H        -2.075830         1.023672         2.543653
 H        -2.034896         3.773835         1.145058
 H        -1.018211         4.499826         3.227639
 H        -0.735011         2.767405         3.557733
 H         1.041192         4.836765         2.272588
 H         1.653105         3.255705         3.167269
 H        -0.085218         3.303956        -0.387510
