19
Iteration:   546
 O         0.427996         0.260524         0.473002
 C        -0.614462         1.232595         0.694790
 C        -2.087414         1.177145         0.321965
 C        -1.730026         1.559158         1.718909
 C        -1.345981         3.040139         1.633478
 C        -0.624431         3.811452         2.658033
 C         0.906942         3.452455         2.678856
 O         1.033986         2.873787         1.270604
 C        -0.201758         2.658587         0.541104
 H         1.305216         0.755746         0.798302
 H        -2.595274         2.028269        -0.218014
 H        -2.391590         0.190585        -0.097419
 H        -1.968062         1.101898         2.635460
 H        -2.160158         3.747612         1.195353
 H        -0.716287         4.893764         2.232046
 H        -1.106022         3.918013         3.660132
 H         1.562843         4.331929         2.635822
 H         1.239821         2.673242         3.431668
 H        -0.046886         3.117747        -0.502293
