19
Iteration:  2540charge 0 multiplicity 1
 O         0.326209         0.236722         0.655650
 C        -0.533153         1.270664         0.622418
 C        -1.978781         1.005672         0.288153
 C        -1.606140         1.600809         1.717141
 C        -1.385949         3.097389         1.613886
 C        -0.544106         3.814628         2.742329
 C         0.762201         3.094054         2.626156
 O         0.977530         3.221441         1.106746
 C        -0.163852         2.821357         0.533277
 H         1.178229         0.667528         1.015896
 H        -2.575731         1.673166        -0.398317
 H        -2.262470         0.038128         0.322873
 H        -1.792619         0.993798         2.585302
 H        -2.273069         3.685017         1.267140
 H        -0.392896         4.893480         2.433676
 H        -1.129135         3.638281         3.755261
 H         1.607147         3.415787         3.228092
 H         0.610862         2.053405         2.923120
 H        -0.282312         3.264039        -0.423659
