19
Iteration:  3770charge 0 multiplicity 1
 O         0.201405         0.127038         0.569453
 C        -0.584337         1.259814         0.579640
 C        -2.097758         1.113428         0.214965
 C        -1.659987         1.546845         1.571646
 C        -1.333743         3.074957         1.625941
 C        -0.579918         3.502094         2.870083
 C         0.855167         3.840814         2.442493
 O         1.037197         2.942668         1.400683
 C        -0.024907         2.769109         0.564792
 H         0.909846         0.357549         1.234089
 H        -2.516829         1.607200        -0.589482
 H        -2.280460         0.080697        -0.097411
 H        -1.694263         1.006014         2.492250
 H        -2.220590         3.714713         1.392445
 H        -1.039536         4.263875         3.510012
 H        -0.436148         2.701273         3.675861
 H         0.956790         4.935914         2.268428
 H         1.639262         3.728908         3.228414
 H         0.114350         3.296511        -0.440135
