19
Iteration:  2580
 O         0.324871         0.203695         0.512217
 C        -0.581097         1.274598         0.673946
 C        -1.958009         1.053718         0.325566
 C        -1.660394         1.609758         1.717566
 C        -1.347377         3.123009         1.561774
 C        -0.653182         3.699368         2.788697
 C         0.855180         3.401261         2.655554
 O         1.005532         3.111325         1.148180
 C        -0.177044         2.683414         0.574753
 H         1.153565         0.304265         0.935740
 H        -2.407740         1.822044        -0.424545
 H        -2.338512         0.009738         0.302104
 H        -2.114686         1.260864         2.583223
 H        -2.065992         3.833225         1.163648
 H        -0.835163         4.741084         2.896766
 H        -0.945144         3.256767         3.682149
 H         1.524983         4.204512         2.774682
 H         1.216174         2.450875         3.110522
 H        -0.063062         3.036569        -0.536839
