19
Iteration:  1535
 O         0.348322         0.229780         0.613413
 C        -0.506782         1.283314         0.658739
 C        -2.031542         1.099515         0.425557
 C        -1.426245         1.576979         1.703198
 C        -1.332654         3.110869         1.499256
 C        -0.708599         3.783406         2.704924
 C         0.706150         3.133338         2.595353
 O         0.969289         3.125488         1.181935
 C        -0.157517         2.817849         0.471776
 H         1.002928         0.403480         1.416107
 H        -2.479205         1.910381        -0.200407
 H        -2.622405         0.247207         0.405150
 H        -1.536640         1.142981         2.691581
 H        -2.336045         3.621572         1.206478
 H        -0.423789         4.827586         2.612193
 H        -1.294017         3.618502         3.636103
 H         1.503687         3.695199         3.068260
 H         0.918828         2.013210         2.934346
 H        -0.177252         3.275882        -0.575885
