19
Iteration:  2938
 O         0.248312         0.163395         0.446639
 C        -0.619456         1.240547         0.592718
 C        -2.002757         1.140032         0.158127
 C        -1.743777         1.611176         1.643614
 C        -1.254534         3.101572         1.710494
 C        -0.569251         3.568506         2.982120
 C         0.792549         3.903003         2.280818
 O         1.063321         2.737610         1.469330
 C        -0.099050         2.715884         0.636526
 H         0.996863         0.376718         1.049021
 H        -2.454001         1.619555        -0.657156
 H        -2.112526         0.013686         0.273547
 H        -2.026410         0.868009         2.438972
 H        -1.978503         3.883255         1.369926
 H        -1.183145         4.488519         3.121746
 H        -0.514997         2.804633         3.827743
 H         0.684941         4.886109         1.782820
 H         1.561652         4.095938         3.061778
 H         0.142886         3.264762        -0.341074
