19
Iteration:  3069charge 0 multiplicity 1
 O         0.342126         0.222242         0.587311
 C        -0.662387         1.179877         0.692156
 C        -1.979550         1.108324         0.157909
 C        -1.745725         1.600136         1.625282
 C        -1.283496         3.119505         1.631831
 C        -0.553458         3.544751         2.890085
 C         0.913976         3.750051         2.388912
 O         0.997282         2.883126         1.349035
 C        -0.214703         2.724925         0.618602
 H         1.233344         0.658870         0.606995
 H        -2.310242         1.856830        -0.608487
 H        -2.329981         0.091607        -0.084892
 H        -2.451527         1.073163         2.365249
 H        -2.088322         3.834454         1.344430
 H        -1.039402         4.379093         3.401240
 H        -0.636411         2.633306         3.529962
 H         1.117687         4.849547         2.160579
 H         1.669979         3.535466         3.247507
 H        -0.142866         3.161488        -0.363028
