19
Iteration:  4312charge 0 multiplicity 1
 O         0.165307         0.088253         0.559372
 C        -0.567243         1.231882         0.652914
 C        -1.915213         1.198760         0.105236
 C        -1.830953         1.527921         1.672402
 C        -1.343946         2.996101         1.607734
 C        -0.523329         3.464577         2.975883
 C         0.823553         3.910965         2.422503
 O         1.125834         3.008505         1.298043
 C        -0.105423         2.717432         0.672418
 H         1.126862         0.324567         0.479009
 H        -2.517175         1.924652        -0.450861
 H        -2.218206         0.197772        -0.116648
 H        -2.206842         0.964624         2.498114
 H        -2.020568         3.785493         1.301764
 H        -0.880091         4.210011         3.704499
 H        -0.555627         2.619870         3.615251
 H         0.734937         4.897707         1.920567
 H         1.705898         3.893368         3.037163
 H        -0.128976         3.153274        -0.379406
