19
Iteration:   109charge 0 multiplicity 1
 O         0.253276        -0.000062         0.565303
 C        -0.573241         1.137349         0.752726
 C        -2.073551         0.999065         0.228743
 C        -1.623961         1.594112         1.647335
 C        -1.317271         3.142523         1.633199
 C        -0.546142         3.838790         2.756597
 C         0.861814         3.215665         2.571467
 O         0.999304         3.394918         1.163984
 C        -0.111646         2.878925         0.600733
 H         0.952291        -0.090237         1.312011
 H        -2.450154         1.689471        -0.599417
 H        -2.534092        -0.065488         0.181610
 H        -1.960449         1.242870         2.571301
 H        -2.135968         3.675740         1.293205
 H        -0.495829         4.950140         2.493348
 H        -1.006548         3.627666         3.755261
 H         1.632492         3.658765         3.103049
 H         0.946873         2.187457         2.983813
 H        -0.232390         3.237412        -0.424550
