19
Iteration:  2952
 O         0.308186         0.203961         0.434836
 C        -0.553436         1.246282         0.640562
 C        -2.057074         1.155314         0.221960
 C        -1.732964         1.585790         1.610726
 C        -1.328651         3.019587         1.598169
 C        -0.565765         3.599082         2.849205
 C         0.844151         3.905519         2.346055
 O         1.065230         2.755675         1.505104
 C        -0.162765         2.667609         0.711819
 H         1.096954         0.358786         1.020740
 H        -2.430323         1.985787        -0.371454
 H        -2.604127         0.294404         0.056395
 H        -2.261484         1.146423         2.511659
 H        -2.075654         3.710471         1.188875
 H        -0.971028         4.343516         3.513024
 H        -0.400507         2.695735         3.602926
 H         0.879863         4.777916         1.596342
 H         1.728272         3.952849         2.985284
 H        -0.108206         3.314540        -0.248078
