19
Iteration:  4201charge 0 multiplicity 1
 O         0.267541         0.180965         0.585074
 C        -0.571248         1.245624         0.594655
 C        -2.072896         1.090971         0.217910
 C        -1.719025         1.501804         1.615295
 C        -1.312327         3.073795         1.598205
 C        -0.651604         3.509170         2.874039
 C         0.920343         3.808200         2.484190
 O         1.165998         2.965193         1.324306
 C        -0.159569         2.804316         0.692990
 H         0.380284        -0.286985        -0.252755
 H        -2.264753         1.854286        -0.480109
 H        -2.331725         0.022703         0.079312
 H        -2.318255         0.980242         2.459433
 H        -2.052622         3.763598         1.142154
 H        -0.941454         4.526482         3.325855
 H        -0.668549         2.773963         3.722701
 H         0.806426         4.826285         2.124159
 H         1.578717         3.504761         3.335892
 H        -0.171637         3.385805        -0.293029
