19
Iteration:  2062
 O         0.418795         0.334130         0.550851
 C        -0.594171         1.304777         0.542837
 C        -2.023155         1.014278         0.325164
 C        -1.793129         1.635426         1.708477
 C        -1.358969         3.050514         1.559680
 C        -0.598961         3.767740         2.697553
 C         0.908849         3.310344         2.584562
 O         1.100000         2.951865         1.292538
 C        -0.262891         2.789019         0.583599
 H         1.165447         0.903439         0.981389
 H        -2.744156         1.309354        -0.437402
 H        -2.184734        -0.136944         0.428322
 H        -2.037396         1.135744         2.642195
 H        -2.162907         3.709319         1.272761
 H        -0.833458         4.890832         2.768501
 H        -1.156373         3.342210         3.554435
 H         1.522053         4.173483         2.976206
 H         1.135595         2.470526         3.292907
 H        -0.180836         3.261293        -0.369580
