19
Iteration:   789charge 0 multiplicity 1
 O         0.206361         0.135936         0.500079
 C        -0.543257         1.250606         0.671223
 C        -1.958686         1.170693         0.290792
 C        -1.629027         1.534816         1.763754
 C        -1.334728         3.030064         1.573445
 C        -0.643047         3.876170         2.745840
 C         0.800443         3.408275         2.610349
 O         1.058145         3.041944         1.252137
 C        -0.096801         2.713354         0.518828
 H         0.972305         0.357583         1.045004
 H        -2.487339         1.963407        -0.310911
 H        -2.069865         0.087442        -0.037794
 H        -2.037024         0.908534         2.583172
 H        -2.303481         3.506549         1.306355
 H        -0.690467         5.016558         2.492193
 H        -0.968962         3.641923         3.770624
 H         1.563624         4.210461         2.896060
 H         0.989433         2.544344         3.266879
 H        -0.189830         3.205420        -0.508474
