19
Iteration:  3555charge 0 multiplicity 1
 O         0.241228         0.164785         0.411973
 C        -0.593296         1.217016         0.673072
 C        -1.977412         1.102389         0.205979
 C        -1.716504         1.541961         1.634317
 C        -1.275548         3.109250         1.611601
 C        -0.595234         3.590967         2.850496
 C         0.815807         3.871431         2.400021
 O         1.058699         2.862799         1.523924
 C        -0.116898         2.699198         0.628580
 H         1.122752         0.434651         0.809028
 H        -2.526894         1.830093        -0.416709
 H        -2.505931         0.100059         0.016023
 H        -2.164494         1.192480         2.526048
 H        -1.946487         3.766868         1.061192
 H        -1.172489         4.289538         3.455584
 H        -0.578710         2.714847         3.498448
 H         0.840578         4.842200         1.901515
 H         1.662355         3.779525         3.113507
 H         0.128718         3.111318        -0.349456
