19
Iteration:  4213charge 0 multiplicity 1
 O         0.339194         0.125709         0.591146
 C        -0.626019         1.218487         0.606828
 C        -2.013520         1.121134         0.151731
 C        -1.754473         1.629544         1.616787
 C        -1.301310         3.035219         1.652258
 C        -0.546502         3.531575         2.911333
 C         0.829763         3.825477         2.474089
 O         1.090785         2.967496         1.369978
 C        -0.139266         2.762327         0.578548
 H         0.225678        -0.196547        -0.311372
 H        -2.623941         1.661981        -0.568819
 H        -2.496431         0.113823         0.201662
 H        -2.008834         0.985120         2.526125
 H        -2.115793         3.780794         1.422201
 H        -1.192656         4.321845         3.386104
 H        -0.573634         2.661694         3.597242
 H         1.151105         4.862170         2.283344
 H         1.604563         3.611292         3.225988
 H        -0.075864         3.318454        -0.398897
