19
Iteration:  1558charge 0 multiplicity 1
 O         0.376508         0.280411         0.556709
 C        -0.583584         1.339097         0.647470
 C        -1.934900         0.969832         0.410520
 C        -1.696525         1.626934         1.723699
 C        -1.406658         3.152507         1.518102
 C        -0.642476         3.816135         2.694335
 C         0.819912         3.156049         2.600334
 O         1.074146         3.082416         1.181497
 C        -0.226207         2.792861         0.560752
 H         1.002222         0.495233         1.188313
 H        -2.448761         1.317873        -0.550883
 H        -2.048273        -0.022368         0.593390
 H        -1.825467         1.016372         2.553502
 H        -2.196080         3.907140         1.224384
 H        -0.526011         4.866518         2.552921
 H        -1.021097         3.641350         3.684976
 H         1.705101         3.533490         3.130579
 H         0.589361         2.087905         3.091737
 H        -0.245645         3.218814        -0.516801
