19
Iteration:  3566
 O         0.215797         0.132529         0.441325
 C        -0.593192         1.265569         0.538586
 C        -2.024910         1.096886         0.205348
 C        -1.735526         1.615031         1.699591
 C        -1.301461         3.017212         1.577996
 C        -0.658121         3.589968         2.934919
 C         0.800922         3.929231         2.467754
 O         1.166767         2.832969         1.434182
 C        -0.055177         2.689207         0.588440
 H         0.954223         0.090108         1.069581
 H        -2.447418         1.900751        -0.432993
 H        -2.130332        -0.028988         0.002037
 H        -1.973099         1.021161         2.541523
 H        -2.122472         3.643032         1.204157
 H        -1.089402         4.513976         3.375594
 H        -0.637325         2.823464         3.694650
 H         0.763327         4.888781         2.037449
 H         1.569617         4.033605         3.266173
 H        -0.047988         3.316442        -0.286518
