19
Iteration:  4401
 O         0.387930         0.229252         0.519830
 C        -0.598924         1.221925         0.621583
 C        -2.087121         1.132461         0.177016
 C        -1.786398         1.509765         1.602348
 C        -1.245763         3.077772         1.697981
 C        -0.647897         3.583555         2.870514
 C         0.904076         3.736506         2.414732
 O         1.095897         2.859659         1.378240
 C        -0.222961         2.707298         0.659825
 H         1.131558         0.848953         0.324416
 H        -2.630335         1.901317        -0.524026
 H        -2.653046         0.119533         0.055261
 H        -1.922034         0.993152         2.583127
 H        -2.046409         3.771834         1.331615
 H        -1.125651         4.588317         3.082657
 H        -0.843887         2.972617         3.802223
 H         1.072587         4.863205         2.177744
 H         1.635471         3.689743         3.209551
 H         0.013933         3.280925        -0.302814
