19
Iteration:  4000charge 0 multiplicity 1
 O         0.242036         0.139864         0.547127
 C        -0.628440         1.225946         0.720571
 C        -2.038347         1.169484         0.204486
 C        -1.756897         1.563638         1.559025
 C        -1.343231         3.110387         1.635705
 C        -0.523066         3.427332         2.826977
 C         0.820208         3.871838         2.398003
 O         1.141046         2.968459         1.337574
 C        -0.092003         2.710358         0.699117
 H         1.077337         0.338491         0.990806
 H        -2.262928         1.628076        -0.713294
 H        -2.348592         0.119009         0.208477
 H        -2.309582         0.989903         2.353913
 H        -2.083364         3.839147         1.272559
 H        -0.995953         4.186592         3.459706
 H        -0.503398         2.376160         3.310008
 H         0.902029         4.918407         2.050308
 H         1.460065         3.900474         3.315349
 H        -0.172484         3.118004        -0.294474
