19
Iteration:   795charge 0 multiplicity 1
 O         0.265013         0.161659         0.500138
 C        -0.589938         1.233652         0.665375
 C        -1.981192         1.209363         0.322433
 C        -1.651644         1.522644         1.741123
 C        -1.340132         3.004712         1.540549
 C        -0.622647         3.855273         2.717353
 C         0.806246         3.429127         2.620434
 O         1.067951         3.013759         1.245396
 C        -0.116999         2.715452         0.584240
 H         1.050939         0.426202         0.947075
 H        -2.509760         1.978491        -0.329159
 H        -2.284287         0.198318         0.045111
 H        -1.856081         1.029998         2.706768
 H        -2.163396         3.667911         1.220072
 H        -0.833015         4.904581         2.552944
 H        -1.145946         3.594382         3.649128
 H         1.481829         4.219280         2.810163
 H         1.063340         2.531420         3.214063
 H        -0.025075         3.094642        -0.412840
