19
Iteration:  1564charge 0 multiplicity 1
 O         0.360818         0.320225         0.536406
 C        -0.561458         1.291230         0.687516
 C        -1.939952         0.933354         0.388605
 C        -1.757256         1.640201         1.670371
 C        -1.411066         3.174247         1.530941
 C        -0.598445         3.797448         2.674103
 C         0.850294         3.158051         2.637961
 O         1.065986         3.080973         1.198213
 C        -0.236139         2.797999         0.584266
 H         1.149505         0.665437         1.088700
 H        -2.369247         1.168722        -0.548195
 H        -2.253705        -0.153056         0.694980
 H        -1.939874         1.073192         2.651917
 H        -2.216548         3.824094         1.142016
 H        -0.483352         4.906727         2.455551
 H        -1.176487         3.728732         3.670595
 H         1.734939         3.618934         3.104820
 H         0.955898         2.130626         2.910633
 H        -0.232800         3.215331        -0.383002
