19
Iteration:  2577charge 0 multiplicity 1
 O         0.324448         0.205019         0.522036
 C        -0.570446         1.289866         0.682688
 C        -1.966578         1.078341         0.322354
 C        -1.675525         1.600770         1.730663
 C        -1.361983         3.098273         1.578712
 C        -0.619667         3.676120         2.724062
 C         0.840891         3.391426         2.667124
 O         0.999841         3.126254         1.146469
 C        -0.147987         2.706459         0.558748
 H         1.210193         0.333326         0.991507
 H        -2.394122         1.747030        -0.339662
 H        -2.447278         0.021270         0.259268
 H        -2.078680         1.203370         2.703565
 H        -2.147903         3.759355         1.123491
 H        -0.781549         4.746302         2.943275
 H        -0.983160         3.248926         3.650952
 H         1.597317         4.215750         2.832124
 H         1.074132         2.401679         3.102036
 H        -0.073270         3.031058        -0.508535
