19
Iteration:   357charge 0 multiplicity 1
 O         0.247625         0.182236         0.554371
 C        -0.647104         1.217124         0.654744
 C        -1.991870         1.054411         0.197429
 C        -1.793599         1.630120         1.618641
 C        -1.262705         3.103140         1.578671
 C        -0.508593         3.574416         2.887186
 C         0.936760         3.825194         2.415696
 O         1.080558         2.851753         1.352387
 C        -0.228068         2.728749         0.641494
 H         0.983252         0.301528         1.064904
 H        -2.294056         1.729255        -0.705881
 H        -2.342576         0.024642         0.154740
 H        -2.339871         1.226507         2.442671
 H        -2.080531         3.884764         1.383476
 H        -1.125047         4.400857         3.361041
 H        -0.625575         2.666850         3.575359
 H         0.995921         4.810641         2.077229
 H         1.782245         3.553007         3.140877
 H        -0.112776         3.350628        -0.295112
