19
Iteration:  4138charge 0 multiplicity 1
 O         0.273588         0.152860         0.555669
 C        -0.606570         1.299843         0.608664
 C        -2.036784         1.124005         0.180014
 C        -1.736153         1.498002         1.628962
 C        -1.282809         3.072897         1.701684
 C        -0.633020         3.634226         2.917916
 C         0.824223         3.785917         2.459090
 O         1.143218         2.872219         1.367184
 C        -0.135333         2.719941         0.577263
 H         1.024863         0.401548        -0.034676
 H        -2.610884         1.706686        -0.648470
 H        -2.349768         0.049091        -0.027249
 H        -2.032128         0.846237         2.523051
 H        -2.124435         3.786990         1.345264
 H        -1.032953         4.629410         3.080716
 H        -0.714111         2.948569         3.737375
 H         1.081215         4.814236         2.123948
 H         1.560731         3.615813         3.231556
 H        -0.042429         3.271565        -0.337778
