19
Iteration:  1356charge 0 multiplicity 1
 O         0.282038         0.086834         0.623806
 C        -0.497907         1.318055         0.664820
 C        -1.937673         1.145436         0.317279
 C        -1.540725         1.571049         1.772516
 C        -1.391561         3.062979         1.574148
 C        -0.644137         3.835412         2.742588
 C         0.699282         3.210918         2.535046
 O         1.097778         3.164165         1.206617
 C        -0.202263         2.799070         0.469984
 H         1.227477         0.401709         0.772577
 H        -2.434593         1.857360        -0.304948
 H        -2.385360         0.249392         0.280355
 H        -1.878405         1.070939         2.609169
 H        -2.442640         3.523556         1.488328
 H        -0.770574         4.914496         2.445085
 H        -1.133368         3.689224         3.739498
 H         1.537047         3.694979         3.032448
 H         0.666944         2.164071         2.921172
 H        -0.129130         3.205122        -0.555984
