19
Iteration:  2071charge 0 multiplicity 1
 O         0.392095         0.327984         0.558459
 C        -0.601376         1.296997         0.603437
 C        -2.069170         1.076149         0.351169
 C        -1.696981         1.521092         1.679531
 C        -1.334735         3.052342         1.583291
 C        -0.652228         3.735808         2.687440
 C         0.895367         3.328202         2.642226
 O         1.049130         2.998169         1.224028
 C        -0.173987         2.793184         0.590293
 H         1.109833         0.673661         1.195479
 H        -2.645136         1.741749        -0.418218
 H        -2.170286        -0.010254         0.285988
 H        -2.094591         1.060822         2.514046
 H        -2.148306         3.670360         1.223979
 H        -0.813736         4.726095         2.376729
 H        -1.141920         3.566237         3.652232
 H         1.680818         4.082020         2.778670
 H         1.072434         2.426060         3.276442
 H        -0.158889         3.299232        -0.423723
