19
Iteration:  2134charge 0 multiplicity 1
 O         0.248683         0.158168         0.453027
 C        -0.593145         1.262346         0.720878
 C        -2.002936         0.951302         0.371783
 C        -1.679555         1.620590         1.764253
 C        -1.368489         3.147149         1.514772
 C        -0.654962         3.718072         2.675128
 C         0.873119         3.264534         2.652055
 O         1.079526         3.331845         1.248975
 C        -0.108289         2.719699         0.541648
 H         1.104521         0.422884         0.926841
 H        -2.481268         1.482129        -0.512587
 H        -2.049064        -0.097949         0.250721
 H        -1.784157         1.072347         2.627190
 H        -2.210811         3.834101         1.233109
 H        -0.664837         4.793876         2.709560
 H        -1.227520         3.375292         3.579699
 H         1.611002         3.809995         3.176529
 H         0.905548         2.224331         3.021291
 H         0.102824         3.148871        -0.502074
