19
Iteration:  4087
 O         0.348402         0.197414         0.495371
 C        -0.577426         1.223547         0.588324
 C        -2.009464         1.122305         0.175892
 C        -1.689270         1.668126         1.628729
 C        -1.304551         3.067206         1.650880
 C        -0.605964         3.496945         3.003522
 C         0.795779         3.856339         2.403288
 O         1.054068         2.814955         1.347265
 C        -0.139074         2.702952         0.608585
 H         0.638631         0.136344         1.404392
 H        -2.421104         1.762718        -0.606767
 H        -2.675934         0.214735         0.291129
 H        -2.202416         1.315136         2.535115
 H        -2.055311         3.659594         1.222559
 H        -0.940892         4.476738         3.308355
 H        -0.566057         2.703542         3.812846
 H         0.662404         4.786465         1.756580
 H         1.697543         3.848540         3.056849
 H        -0.060506         3.337232        -0.342740
