19
Iteration:   726charge 0 multiplicity 1
 O         0.319790         0.236675         0.639233
 C        -0.599489         1.326073         0.774185
 C        -1.969385         1.129380         0.339980
 C        -1.700809         1.690709         1.743827
 C        -1.342002         3.155159         1.466154
 C        -0.680474         3.628127         2.730979
 C         0.805143         3.167854         2.539109
 O         1.090246         3.136450         1.141992
 C        -0.138004         2.732297         0.539773
 H         1.189789         0.559865         0.935108
 H        -2.341263         1.705001        -0.361352
 H        -2.201347         0.069890         0.230878
 H        -1.921885         1.262782         2.733869
 H        -2.239642         3.557272         0.918229
 H        -0.703645         4.639156         2.929490
 H        -0.992380         3.133346         3.664769
 H         1.590683         3.875058         2.973413
 H         0.867575         2.155417         2.966084
 H        -0.158988         3.224849        -0.468550
