19
Iteration:  3489charge 0 multiplicity 1
 O         0.305249         0.138505         0.578192
 C        -0.576724         1.307736         0.487385
 C        -1.954572         1.108571         0.208068
 C        -1.750290         1.576312         1.643379
 C        -1.366841         3.055259         1.605447
 C        -0.623493         3.592107         2.847444
 C         0.909527         3.767681         2.403922
 O         1.061304         2.841444         1.399451
 C        -0.177236         2.811146         0.609068
 H         0.801739         0.214325         1.412228
 H        -2.543121         1.836687        -0.415275
 H        -2.379087         0.039554         0.084433
 H        -2.006270         0.937943         2.491171
 H        -2.169766         3.777293         1.655040
 H        -1.102993         4.345462         3.437351
 H        -0.583166         2.847119         3.639021
 H         1.233747         4.810424         2.018913
 H         1.522988         3.595910         3.364254
 H        -0.012479         3.381049        -0.359119
