19
Iteration:  3655
 O         0.353148         0.248570         0.588332
 C        -0.603382         1.279262         0.631140
 C        -2.051112         1.106019         0.184395
 C        -1.800863         1.609854         1.523218
 C        -1.306930         3.094048         1.612124
 C        -0.559709         3.497894         2.903602
 C         0.821216         3.816657         2.394135
 O         1.066854         2.846741         1.390001
 C        -0.125962         2.672698         0.604698
 H         1.040229         0.639281         1.206782
 H        -2.716199         1.779005        -0.557673
 H        -2.358713         0.039478         0.314362
 H        -2.006001         0.987120         2.467604
 H        -2.052078         3.835377         1.227348
 H        -1.057559         4.146551         3.654532
 H        -0.584256         2.650421         3.581510
 H         1.163261         4.767541         2.028733
 H         1.563680         3.602243         3.143286
 H        -0.041140         3.204186        -0.328530
