19
Iteration:  4295charge 0 multiplicity 1
 O         0.229250        -0.011825         0.598743
 C        -0.573910         1.240250         0.634595
 C        -2.016620         1.212262         0.134007
 C        -1.685951         1.610095         1.494263
 C        -1.312959         3.054156         1.803840
 C        -0.553873         3.449820         2.979615
 C         0.817559         3.941132         2.336178
 O         1.085587         2.970487         1.320007
 C        -0.139948         2.721845         0.669229
 H         1.067932         0.169289         0.085682
 H        -2.147192         1.960588        -0.703427
 H        -2.370699         0.151876         0.142066
 H        -2.260010         1.036823         2.258358
 H        -2.089393         3.804478         1.442250
 H        -1.146181         4.226881         3.482451
 H        -0.332345         2.648056         3.789988
 H         0.553804         4.932774         1.936769
 H         1.586783         3.803399         3.151785
 H        -0.161113         3.261407        -0.266502
