19
Iteration:  3230charge 0 multiplicity 1
 O         0.307495         0.251832         0.532314
 C        -0.607504         1.294011         0.570529
 C        -2.071095         1.044453         0.219281
 C        -1.732854         1.615566         1.621510
 C        -1.274256         3.104173         1.628006
 C        -0.588076         3.558699         2.905037
 C         0.807399         3.773023         2.407532
 O         1.119347         2.764798         1.407490
 C        -0.159920         2.715359         0.625768
 H         1.194957         0.559888         0.884376
 H        -2.564518         1.499265        -0.716547
 H        -2.440052         0.081667         0.298567
 H        -1.957552         0.894466         2.436964
 H        -1.883609         3.907729         1.215600
 H        -1.031240         4.554528         3.260448
 H        -0.919868         2.962022         3.753216
 H         0.764984         4.758314         1.770626
 H         1.570319         3.935961         3.171981
 H         0.104024         3.402474        -0.207465
