19
Iteration:   271
 O         0.101188         0.079898         0.414385
 C        -0.590167         1.231997         0.723656
 C        -2.059856         1.077926         0.187954
 C        -1.834236         1.552102         1.677947
 C        -1.198803         3.022122         1.589283
 C        -0.556068         3.575879         2.840204
 C         0.834552         3.919603         2.404862
 O         1.205540         2.976444         1.381434
 C        -0.050561         2.683561         0.765654
 H         1.003353         0.088550         1.009426
 H        -2.532150         1.840037        -0.547681
 H        -2.395483         0.008432         0.031921
 H        -2.123388         0.963796         2.508127
 H        -1.994906         3.770691         1.104675
 H        -0.991268         4.581496         2.850300
 H        -0.674864         2.907904         3.722409
 H         0.716832         5.037442         1.962655
 H         1.726377         3.895654         3.169212
 H        -0.030072         3.333579        -0.182729
