19
Iteration:    24
 O         0.369364         0.460266         0.651623
 C        -0.651379         1.380039         0.686798
 C        -1.948860         0.875716         0.269321
 C        -1.815490         1.688691         1.663311
 C        -1.416144         3.246383         1.571123
 C        -0.539201         3.736663         2.772716
 C         0.913264         3.178605         2.575955
 O         1.081068         2.762842         1.180066
 C        -0.276781         2.848589         0.506453
 H         1.247128         1.024101         0.973457
 H        -2.445696         1.206286        -0.551420
 H        -2.073646        -0.199157         0.515816
 H        -2.058784         1.266201         2.591811
 H        -2.181451         4.007800         1.241453
 H        -0.456165         4.794272         2.817258
 H        -0.892618         3.437775         3.739708
 H         1.646858         3.972104         2.800374
 H         1.089645         2.273955         3.118410
 H        -0.121910         3.290025        -0.473424
