19
Iteration:   794
 O         0.251802         0.157240         0.498740
 C        -0.583953         1.232630         0.666042
 C        -1.977274         1.206130         0.314859
 C        -1.649441         1.523137         1.748160
 C        -1.340530         3.004659         1.542047
 C        -0.624542         3.866062         2.723346
 C         0.803719         3.426334         2.618410
 O         1.065036         3.017767         1.246755
 C        -0.109144         2.716744         0.571900
 H         1.067172         0.433744         0.988835
 H        -2.485560         1.936797        -0.293625
 H        -2.222900         0.222828         0.033586
 H        -1.881008         1.015780         2.676274
 H        -2.191683         3.642611         1.249005
 H        -0.803164         4.876029         2.552588
 H        -1.119210         3.598987         3.674300
 H         1.491753         4.218846         2.822554
 H         1.055237         2.526094         3.216035
 H        -0.056560         3.114826        -0.435278
