19
Iteration:  2207charge 0 multiplicity 1
 O         0.450936         0.413301         0.623150
 C        -0.635358         1.259813         0.602799
 C        -2.083338         1.018054         0.206338
 C        -1.801376         1.563061         1.642831
 C        -1.419082         3.028608         1.675256
 C        -0.586865         3.736064         2.746563
 C         0.927740         3.381387         2.698056
 O         1.084355         2.929912         1.110859
 C        -0.224782         2.746950         0.646196
 H         1.162759         1.017258         1.096481
 H        -2.333624         1.479577        -0.791500
 H        -2.326610         0.038640         0.211365
 H        -2.080666         1.041993         2.521948
 H        -2.213485         3.695022         1.310349
 H        -0.519642         4.826193         2.278488
 H        -0.794558         3.782638         3.818432
 H         1.626133         4.240567         2.803223
 H         1.143956         2.461934         3.306283
 H        -0.203717         3.213520        -0.285000
