19
Iteration:  4574charge 0 multiplicity 1
 O         0.251248         0.143224         0.642727
 C        -0.598076         1.275028         0.663161
 C        -1.954856         1.178790         0.113208
 C        -1.729620         1.556108         1.671176
 C        -1.348079         3.039152         1.597385
 C        -0.572815         3.386327         2.992791
 C         0.826447         3.768910         2.430047
 O         1.117618         3.002286         1.236266
 C        -0.116778         2.802420         0.599380
 H         1.052256         0.285338         0.126712
 H        -2.564200         1.893450        -0.523035
 H        -2.288416         0.182429         0.100587
 H        -2.214519         1.142255         2.606074
 H        -2.089453         3.799145         1.328741
 H        -1.041405         4.374687         3.521314
 H        -0.738119         2.442146         3.579139
 H         0.607331         4.818408         2.304224
 H         1.575658         3.589739         3.238824
 H        -0.120628         3.157285        -0.515844
