19
Iteration:  1719
 O         0.410748         0.263700         0.682407
 C        -0.636210         1.286053         0.501045
 C        -2.128848         0.995912         0.340348
 C        -1.664085         1.587840         1.619127
 C        -1.314703         3.088121         1.614374
 C        -0.605887         3.793654         2.727215
 C         0.877414         3.345152         2.567211
 O         1.029108         3.024795         1.215917
 C        -0.198008         2.760700         0.599041
 H         1.041301         0.732534         1.214922
 H        -2.608503         1.670540        -0.455825
 H        -2.214543        -0.021398         0.283576
 H        -1.914141         0.971788         2.431871
 H        -2.096283         3.633148         1.103375
 H        -0.597355         4.924940         2.642724
 H        -1.026549         3.506973         3.786906
 H         1.582488         4.097145         2.835303
 H         1.231678         2.427394         3.117425
 H        -0.242649         3.251293        -0.323223
