19
Iteration:  2190
 O         0.444529         0.449888         0.670946
 C        -0.631115         1.284017         0.654430
 C        -1.977381         1.026972         0.176837
 C        -1.752832         1.541329         1.642030
 C        -1.333485         3.065139         1.613062
 C        -0.552512         3.811069         2.789222
 C         0.893424         3.297986         2.507816
 O         1.005991         2.866320         1.263938
 C        -0.312189         2.756357         0.553660
 H         1.216214         1.003160         0.774978
 H        -2.605953         1.750524        -0.303047
 H        -2.256413        -0.108393         0.224204
 H        -2.109654         0.919747         2.469769
 H        -2.135713         3.787973         1.343077
 H        -0.588687         4.858333         2.727875
 H        -1.001833         3.385938         3.734145
 H         1.584536         4.128103         2.629476
 H         1.160769         2.543616         3.253963
 H        -0.327599         3.373926        -0.424690
