19
Iteration:  4815charge 0 multiplicity 1
 O         0.318265         0.291890         0.454682
 C        -0.666046         1.339183         0.623670
 C        -2.075201         1.062380         0.271029
 C        -1.759823         1.520493         1.644763
 C        -1.333755         3.024338         1.621370
 C        -0.553856         3.514551         2.875312
 C         0.866413         3.785646         2.470575
 O         1.082390         2.847846         1.349902
 C        -0.101372         2.761215         0.600113
 H         1.032937         0.446230         1.099005
 H        -2.560764         1.740226        -0.459048
 H        -2.082520        -0.051018         0.063606
 H        -2.049678         0.958712         2.453377
 H        -2.144006         3.781245         1.220743
 H        -1.136014         4.451615         3.214314
 H        -0.552172         2.751849         3.654417
 H         1.134005         4.780603         2.092475
 H         1.565596         3.568076         3.429786
 H         0.013979         3.336241        -0.293675
