19
Iteration:  4565
 O         0.206070         0.126765         0.661494
 C        -0.553809         1.338512         0.649900
 C        -2.014728         1.150711         0.080976
 C        -1.652121         1.503530         1.662698
 C        -1.297737         3.105420         1.580327
 C        -0.555033         3.378296         2.932111
 C         0.790794         3.768251         2.416908
 O         1.117905         3.020046         1.326910
 C        -0.182469         2.772821         0.646133
 H         1.003756         0.142526         0.119635
 H        -2.738160         1.966842        -0.371097
 H        -2.183194         0.119633        -0.185490
 H        -2.102997         0.901044         2.368204
 H        -2.089200         3.699251         1.197269
 H        -0.859420         4.294743         3.583144
 H        -0.591357         2.593484         3.765376
 H         0.736212         4.850324         2.056395
 H         1.642009         3.710922         3.032960
 H        -0.268273         3.256690        -0.367458
