19
Iteration:  1101
 O         0.395419         0.363322         0.503491
 C        -0.574100         1.287902         0.679718
 C        -2.013824         0.967516         0.413227
 C        -1.807251         1.635294         1.773575
 C        -1.408286         3.137165         1.543441
 C        -0.637780         3.787697         2.654896
 C         0.762473         3.158511         2.629264
 O         1.156925         3.057963         1.251058
 C        -0.110144         2.711955         0.508152
 H         1.334148         0.769892         0.526495
 H        -2.603599         1.507502        -0.243181
 H        -2.298715        -0.001973         0.494460
 H        -2.059807         1.317409         2.741124
 H        -2.094333         3.721434         0.882548
 H        -0.472398         4.835076         2.398897
 H        -1.237504         3.803826         3.561275
 H         1.586077         3.679994         3.119371
 H         0.666866         2.186320         3.098638
 H        -0.037777         3.309343        -0.447690
