19
Iteration:  4080
 O         0.301679         0.230083         0.534929
 C        -0.545225         1.232799         0.590949
 C        -2.009153         1.157699         0.133014
 C        -1.682332         1.603451         1.620127
 C        -1.266730         3.055337         1.651103
 C        -0.575092         3.485151         2.953769
 C         0.832851         3.837591         2.342819
 O         1.027989         2.857124         1.377288
 C        -0.163358         2.698937         0.671146
 H         0.608917        -0.112116         1.370592
 H        -2.533975         1.754091        -0.581662
 H        -2.400412         0.210506         0.394001
 H        -2.162329         1.140878         2.454379
 H        -1.989711         3.837633         1.220782
 H        -1.169255         4.375865         3.363082
 H        -0.830892         2.770294         3.772654
 H         0.685214         4.841928         1.806145
 H         1.816663         3.789312         2.939439
 H        -0.233263         3.236599        -0.258158
