19
Iteration:  1081
 O         0.321895         0.189844         0.509430
 C        -0.591560         1.251281         0.638269
 C        -2.030053         0.962279         0.410703
 C        -1.559147         1.682746         1.679937
 C        -1.307324         3.180639         1.493901
 C        -0.623661         3.844766         2.684087
 C         0.703821         3.119590         2.679997
 O         1.028310         3.178099         1.262955
 C        -0.156249         2.795132         0.543339
 H         1.209766         0.404225         1.009368
 H        -2.702649         1.335358        -0.344299
 H        -2.080117        -0.073017         0.624590
 H        -1.761564         1.199393         2.587589
 H        -2.162102         3.762918         0.980155
 H        -0.438978         4.966302         2.694044
 H        -1.018245         3.723783         3.649204
 H         1.623742         3.533271         3.097120
 H         0.734526         2.050030         2.956620
 H        -0.090830         3.281202        -0.547147
