19
Iteration:  4366
 O         0.319349         0.249760         0.546133
 C        -0.586984         1.285043         0.589706
 C        -1.980638         1.079065         0.188777
 C        -1.673339         1.612229         1.611042
 C        -1.298420         3.118979         1.657201
 C        -0.602859         3.490851         2.937848
 C         0.868578         3.747829         2.382982
 O         1.011798         2.827601         1.339623
 C        -0.208532         2.802092         0.597406
 H         0.627502        -0.195069         1.385625
 H        -2.400324         1.706112        -0.571544
 H        -2.216768         0.000997         0.216309
 H        -1.876823         1.030573         2.490892
 H        -2.025753         3.890628         1.569953
 H        -1.101149         4.448414         3.383499
 H        -0.703441         2.661152         3.674370
 H         0.874077         4.809152         1.948065
 H         1.606170         3.501910         3.135329
 H        -0.144270         3.371403        -0.355427
