19
Iteration:  3227charge 0 multiplicity 1
 O         0.308435         0.246428         0.540923
 C        -0.612894         1.303165         0.568250
 C        -2.071433         1.068356         0.229852
 C        -1.708974         1.596112         1.613070
 C        -1.247096         3.107821         1.649692
 C        -0.582677         3.563522         2.874170
 C         0.783679         3.785759         2.427437
 O         1.104618         2.751797         1.400533
 C        -0.153264         2.733094         0.606275
 H         1.143662         0.451170         0.937864
 H        -2.485723         1.568800        -0.618786
 H        -2.352573        -0.014041         0.254752
 H        -2.033646         0.894766         2.430454
 H        -1.923130         3.951685         1.308011
 H        -1.043162         4.528177         3.246226
 H        -0.951700         2.913280         3.765986
 H         0.671532         4.690768         1.728458
 H         1.589198         3.876742         3.129763
 H         0.040938         3.361010        -0.234915
