19
Iteration:  1614charge 0 multiplicity 1
 O         0.399284         0.300047         0.692501
 C        -0.577898         1.309316         0.697844
 C        -1.982803         1.096541         0.295495
 C        -1.565321         1.594391         1.741494
 C        -1.390863         3.134210         1.554868
 C        -0.673863         3.683483         2.740496
 C         0.785435         3.228108         2.528163
 O         1.043579         2.984652         1.129750
 C        -0.231335         2.810624         0.514736
 H         1.012344         0.718477         1.270313
 H        -2.447617         1.864176        -0.355384
 H        -2.393615         0.083014         0.183027
 H        -1.948206         1.119205         2.636124
 H        -2.251672         3.767413         1.253457
 H        -0.673896         4.756795         2.663857
 H        -0.936807         3.429007         3.714905
 H         1.525145         4.030967         2.709796
 H         1.148992         2.288908         3.079861
 H        -0.328284         3.205681        -0.559417
