19
Iteration:  4010
 O         0.217148         0.080903         0.549327
 C        -0.577864         1.183820         0.689261
 C        -1.937441         1.163542         0.191435
 C        -1.798740         1.650127         1.637835
 C        -1.332001         3.093405         1.595678
 C        -0.592705         3.412036         2.928687
 C         0.854406         3.888149         2.419814
 O         1.132444         2.993732         1.338213
 C        -0.137497         2.696394         0.614324
 H         1.092395         0.511294         0.610210
 H        -2.273463         1.916380        -0.550640
 H        -2.370616         0.151712         0.121037
 H        -2.484329         1.090016         2.339582
 H        -2.126426         3.703613         1.239752
 H        -1.113821         4.086912         3.596605
 H        -0.475148         2.526050         3.625742
 H         0.743199         4.942329         1.903155
 H         1.757256         3.865343         3.037225
 H         0.069830         3.054174        -0.409390
