19
Iteration:  3813charge 0 multiplicity 1
 O         0.351096         0.196685         0.403755
 C        -0.598478         1.299825         0.703905
 C        -1.953819         1.160585         0.215515
 C        -1.804941         1.560396         1.662259
 C        -1.395926         3.093220         1.666046
 C        -0.568815         3.580449         2.906929
 C         0.820866         3.816213         2.296225
 O         1.067287         2.802644         1.439091
 C        -0.120716         2.638074         0.690638
 H         1.162298         0.346820         0.920820
 H        -2.433357         1.912398        -0.431530
 H        -2.184694         0.146720        -0.149063
 H        -2.467427         1.084096         2.350059
 H        -2.155389         3.863469         1.276557
 H        -1.001961         4.548473         3.245538
 H        -0.629939         2.725948         3.696906
 H         0.943418         4.851579         1.820456
 H         1.619779         3.851698         3.067878
 H         0.065673         2.981682        -0.343294
