19
Iteration:  4789charge 0 multiplicity 1
 O         0.358784         0.147978         0.271198
 C        -0.595328         1.192130         0.658911
 C        -2.021182         1.118842         0.278512
 C        -1.730006         1.690436         1.645505
 C        -1.336845         3.090170         1.667517
 C        -0.627602         3.556951         2.982343
 C         0.810587         3.813678         2.385336
 O         1.063176         2.888766         1.427261
 C        -0.124819         2.632768         0.673399
 H         1.221129         0.526852         0.479536
 H        -2.345521         1.812123        -0.465249
 H        -2.422911         0.137130         0.376700
 H        -2.300719         1.107159         2.522933
 H        -2.036713         3.796743         1.252764
 H        -1.134875         4.449758         3.190646
 H        -0.657834         2.817594         3.761797
 H         0.981937         4.814972         1.969023
 H         1.559531         3.706498         3.178854
 H         0.037695         3.191096        -0.308255
