19
Iteration:  3727charge 0 multiplicity 1
 O         0.344957         0.148921         0.543201
 C        -0.588049         1.199449         0.785966
 C        -2.003464         1.171048         0.095378
 C        -1.865829         1.644503         1.608229
 C        -1.336313         3.014264         1.617544
 C        -0.547518         3.535884         2.912085
 C         0.853762         3.790900         2.452166
 O         1.070718         2.982265         1.295472
 C        -0.187085         2.664085         0.583751
 H         1.190051         0.453076         0.982646
 H        -2.254345         1.895418        -0.587434
 H        -2.524660         0.200136         0.115880
 H        -2.080098         0.960624         2.382169
 H        -2.069102         3.777299         1.338889
 H        -1.028090         4.335568         3.427493
 H        -0.573400         2.912682         3.834128
 H         1.245280         4.834105         2.344048
 H         1.651140         3.433383         3.217153
 H         0.032174         2.950301        -0.504879
