19
Iteration:  1918
 O         0.368511         0.258135         0.656840
 C        -0.594534         1.267839         0.589158
 C        -2.112624         1.040872         0.362247
 C        -1.696175         1.613649         1.595896
 C        -1.354842         3.131472         1.523787
 C        -0.600500         3.562886         2.827085
 C         0.864157         3.420643         2.596718
 O         1.089038         3.082934         1.140419
 C        -0.180887         2.818271         0.544760
 H         0.982912         0.373220         1.410234
 H        -2.668348         1.539827        -0.456784
 H        -2.221147        -0.031759         0.494477
 H        -1.915668         1.012419         2.478480
 H        -2.209241         3.643657         1.134634
 H        -0.692260         4.685024         2.973343
 H        -0.946837         3.117995         3.811191
 H         1.303953         4.348692         2.925321
 H         1.333615         2.523000         3.066979
 H        -0.031868         3.169165        -0.446088
