19
Iteration:  4634
 O         0.312404         0.305365         0.668643
 C        -0.571053         1.344731         0.681785
 C        -1.957915         1.152085         0.105241
 C        -1.723612         1.546050         1.549557
 C        -1.310947         3.075508         1.689251
 C        -0.548037         3.379476         2.910315
 C         0.810151         3.648414         2.378040
 O         1.053443         2.914371         1.202083
 C        -0.256613         2.806486         0.657844
 H         0.764601         0.355752         1.561929
 H        -2.595660         1.673474        -0.596846
 H        -2.183357         0.033774         0.192178
 H        -1.965592         1.045128         2.520836
 H        -1.918458         3.894176         1.304686
 H        -0.915725         4.211622         3.411905
 H        -0.627477         2.570983         3.651409
 H         1.056859         4.723414         2.184090
 H         1.542429         3.282498         3.033009
 H        -0.165589         3.359153        -0.231827
