19
Iteration:  3180
 O         0.256649         0.079758         0.493991
 C        -0.584377         1.212268         0.639322
 C        -2.009424         1.154678         0.136378
 C        -1.762306         1.545645         1.632857
 C        -1.291086         2.980170         1.639108
 C        -0.578347         3.595302         2.963330
 C         0.830958         3.917576         2.411917
 O         1.122120         2.949778         1.330076
 C        -0.122669         2.689154         0.657938
 H         0.896911         0.198236         1.234466
 H        -2.530205         1.894282        -0.472222
 H        -2.329323         0.139326        -0.106361
 H        -2.371814         1.208681         2.425241
 H        -2.087238         3.659705         1.249660
 H        -1.074941         4.494998         3.245468
 H        -0.625559         3.029564         3.912797
 H         0.922298         4.937213         2.009985
 H         1.559165         3.677908         3.234338
 H        -0.058252         3.236574        -0.258040
