19
Iteration:  1993
 O         0.378978         0.301636         0.644060
 C        -0.602768         1.295510         0.684556
 C        -2.055577         1.084803         0.282823
 C        -1.563038         1.515423         1.726362
 C        -1.339441         3.069622         1.587585
 C        -0.614084         3.815429         2.702550
 C         0.772942         3.113725         2.590220
 O         1.056286         3.162806         1.201613
 C        -0.206794         2.778507         0.506413
 H         1.224051         0.720911         0.670184
 H        -2.796790         1.648971        -0.435837
 H        -2.306399         0.053100         0.346584
 H        -1.811253         0.978722         2.651391
 H        -2.213019         3.418720         1.076428
 H        -0.516421         4.800250         2.440788
 H        -1.091035         3.801060         3.672369
 H         1.572933         3.688807         3.031616
 H         0.758896         2.116292         3.127478
 H        -0.326273         3.372118        -0.444568
