19
Iteration:   248
 O         0.199428         0.089733         0.533874
 C        -0.605367         1.191889         0.535793
 C        -2.068841         1.160827         0.270406
 C        -1.567582         1.600209         1.704685
 C        -1.337473         3.080274         1.570939
 C        -0.647480         3.663319         2.898924
 C         0.865793         3.849673         2.470486
 O         1.110436         2.864499         1.367170
 C        -0.104746         2.674533         0.536346
 H         0.971568         0.415775         0.912471
 H        -2.566745         1.892930        -0.425066
 H        -2.606646         0.141103         0.324710
 H        -1.990889         1.125232         2.536464
 H        -2.199018         3.736668         1.063585
 H        -1.209060         4.525863         3.281074
 H        -0.559440         2.784301         3.575234
 H         1.213996         4.960516         2.261770
 H         1.551861         3.379229         3.274344
 H         0.174822         3.209574        -0.439712
