19
Iteration:  4957
 O         0.313934         0.232817         0.465976
 C        -0.650862         1.231250         0.592311
 C        -2.029454         1.149857         0.126358
 C        -1.752172         1.500365         1.633723
 C        -1.245855         2.961287         1.743110
 C        -0.558171         3.538985         2.950330
 C         0.781971         3.853614         2.366300
 O         1.144601         2.889636         1.354961
 C        -0.199176         2.719095         0.715045
 H         0.976505         0.424933         1.179601
 H        -2.581915         1.898930        -0.485443
 H        -2.321569         0.191399        -0.203843
 H        -2.309101         0.961251         2.383625
 H        -1.966976         3.738551         1.372556
 H        -1.102486         4.477398         3.277718
 H        -0.404142         2.808953         3.711876
 H         0.780382         4.885692         1.753272
 H         1.671236         3.888847         3.192649
 H        -0.080899         3.397913        -0.209064
