19
Iteration:  2514charge 0 multiplicity 1
 O         0.447700         0.332734         0.603163
 C        -0.540304         1.311873         0.664904
 C        -1.945629         0.961013         0.366296
 C        -1.686276         1.708477         1.706077
 C        -1.427312         3.233955         1.548422
 C        -0.608254         3.743444         2.774933
 C         0.796046         3.056044         2.612214
 O         1.008906         3.008497         1.106166
 C        -0.256675         2.830290         0.551956
 H         1.323172         0.710701         0.962995
 H        -2.547642         1.465274        -0.441274
 H        -2.127402        -0.229050         0.523505
 H        -2.099064         1.274002         2.638815
 H        -2.171035         3.922118         1.136076
 H        -0.405150         4.787854         2.585490
 H        -1.146382         3.572406         3.671998
 H         1.566188         3.685882         3.058053
 H         0.814010         2.023783         2.980903
 H        -0.340056         3.291280        -0.535299
