19
Iteration:  2199charge 0 multiplicity 1
 O         0.460905         0.443025         0.656026
 C        -0.656676         1.283286         0.609155
 C        -2.029944         1.001849         0.174143
 C        -1.816015         1.543928         1.686634
 C        -1.325790         3.070851         1.683959
 C        -0.544278         3.748493         2.749236
 C         0.882199         3.357218         2.610288
 O         1.053155         2.875691         1.172755
 C        -0.256785         2.756416         0.603220
 H         1.138248         1.112948         0.890517
 H        -2.492691         1.559046        -0.657025
 H        -2.310372        -0.002296         0.087093
 H        -2.100034         0.879320         2.455720
 H        -2.108691         3.766182         1.283061
 H        -0.704967         4.819219         2.471643
 H        -1.007606         3.750125         3.781603
 H         1.529547         4.181129         2.789024
 H         1.249350         2.520604         3.220628
 H        -0.298141         3.265046        -0.348178
