19
Iteration:  4754charge 0 multiplicity 1
 O         0.148604         0.190890         0.345798
 C        -0.601157         1.266334         0.547833
 C        -2.029336         1.150615         0.203224
 C        -1.548043         1.476102         1.636858
 C        -1.321831         2.961857         1.686669
 C        -0.658930         3.604357         2.896339
 C         0.841735         3.917535         2.360393
 O         1.113385         2.871365         1.506239
 C        -0.077933         2.694097         0.758166
 H         0.780178         0.321227         1.058796
 H        -2.494870         1.907043        -0.490469
 H        -2.389127         0.191619        -0.083090
 H        -1.871125         0.671536         2.396178
 H        -2.016717         3.590931         1.251876
 H        -1.189985         4.440974         3.276607
 H        -0.516752         3.044457         3.875128
 H         0.931156         4.848347         1.730014
 H         1.497194         3.906553         3.125885
 H        -0.026083         3.319184        -0.212425
