19
Iteration:   171
 O         0.359420         0.227079         0.557979
 C        -0.587198         1.228741         0.600098
 C        -2.022544         1.096978         0.343146
 C        -1.759409         1.630022         1.666694
 C        -1.347732         3.092205         1.616184
 C        -0.610514         3.764290         2.817970
 C         0.877267         3.517530         2.571059
 O         1.037835         2.852988         1.194417
 C        -0.170266         2.723493         0.571723
 H         1.290117         0.730619         0.676973
 H        -2.515993         1.711392        -0.469389
 H        -2.422038         0.046833         0.337666
 H        -2.196659         1.197679         2.557775
 H        -2.112805         3.885937         1.209729
 H        -0.927473         4.796157         3.015528
 H        -0.936717         3.246344         3.751820
 H         1.505595         4.473552         2.397790
 H         1.505734         2.937324         3.329165
 H         0.046926         3.143458        -0.457449
