19
Iteration:   288
 O         0.123427         0.023298         0.381296
 C        -0.590485         1.176902         0.712652
 C        -1.950302         1.195773         0.191172
 C        -1.767241         1.594376         1.630087
 C        -1.317633         3.037268         1.701382
 C        -0.594604         3.632001         2.929826
 C         0.849724         4.013884         2.313767
 O         1.178737         2.921437         1.409626
 C        -0.086618         2.615360         0.691570
 H         0.832551        -0.163434         1.120703
 H        -2.222209         1.828503        -0.594421
 H        -2.277576         0.149241         0.052260
 H        -2.456998         1.136420         2.389120
 H        -2.075114         3.692813         1.337226
 H        -1.063901         4.416509         3.548605
 H        -0.324432         2.797202         3.606184
 H         0.877409         4.866985         1.724875
 H         1.567090         4.091131         3.077960
 H        -0.055854         2.972241        -0.328811
