19
Iteration:  3689
 O         0.265825         0.259335         0.655932
 C        -0.624926         1.305237         0.649434
 C        -1.947375         1.102111         0.154858
 C        -1.761331         1.589056         1.532408
 C        -1.297648         3.100096         1.645432
 C        -0.597060         3.464792         2.991528
 C         0.811856         3.734409         2.398127
 O         1.098200         2.835554         1.305139
 C        -0.142271         2.758079         0.533820
 H         1.040798         0.594844         1.180077
 H        -2.582939         1.792651        -0.595679
 H        -2.208346         0.041139         0.276603
 H        -1.807390         1.011397         2.504970
 H        -2.084771         3.870766         1.379688
 H        -1.008941         4.476232         3.246795
 H        -0.554531         2.631244         3.724263
 H         0.809486         4.757769         1.995286
 H         1.535844         3.549889         3.142963
 H        -0.109577         3.201869        -0.466162
