19
Iteration:   310charge 0 multiplicity 1
 O         0.212384        -0.023266         0.511883
 C        -0.615325         1.178876         0.625671
 C        -1.997764         1.330746         0.152851
 C        -1.681088         1.560591         1.642189
 C        -1.263327         3.017129         1.654750
 C        -0.479946         3.521867         2.932098
 C         0.785519         4.024587         2.244673
 O         1.007528         2.843299         1.488391
 C        -0.109221         2.685600         0.659448
 H         0.936586         0.059381         1.155594
 H        -2.187077         2.219478        -0.360201
 H        -2.703035         0.520971        -0.142093
 H        -2.051408         1.025816         2.542535
 H        -1.820893         3.790620         1.233591
 H        -1.057372         4.383686         3.342406
 H        -0.298416         2.797112         3.736984
 H         0.532811         4.850634         1.634132
 H         1.661230         4.244559         2.804204
 H        -0.049910         3.233361        -0.252973
