19
Iteration:  3140charge 0 multiplicity 1
 O         0.224517         0.066647         0.542810
 C        -0.535842         1.218250         0.656020
 C        -2.027467         1.177377         0.183781
 C        -1.723819         1.563793         1.661392
 C        -1.358859         3.068781         1.587786
 C        -0.575313         3.458630         2.860383
 C         0.851636         3.925823         2.372628
 O         1.091444         2.958684         1.445070
 C        -0.112008         2.747824         0.607348
 H         1.144883         0.152529         0.877463
 H        -2.382900         1.873428        -0.537189
 H        -2.460140         0.108108        -0.051841
 H        -2.361970         1.254311         2.494722
 H        -1.984063         3.905566         1.217601
 H        -1.219375         4.038534         3.624381
 H        -0.210007         2.457893         3.371848
 H         0.899182         5.021629         2.106784
 H         1.652048         3.919836         3.059103
 H        -0.203636         3.028676        -0.482380
