19
Iteration:  1642charge 0 multiplicity 1
 O         0.269234         0.170959         0.663844
 C        -0.582649         1.253722         0.624611
 C        -1.990927         0.936006         0.269529
 C        -1.648891         1.560312         1.646946
 C        -1.347744         3.121874         1.570575
 C        -0.600195         3.772097         2.751474
 C         0.867066         3.244595         2.584776
 O         1.055247         3.263274         1.166859
 C        -0.181586         2.843132         0.575638
 H         0.825603         0.321515         1.458400
 H        -2.618764         1.544637        -0.407944
 H        -2.303286        -0.064257         0.413565
 H        -1.801869         1.055724         2.571135
 H        -2.163629         3.757416         1.163411
 H        -0.690156         4.896325         2.623743
 H        -0.913426         3.459386         3.848584
 H         1.675188         3.910526         2.817629
 H         1.073137         2.252993         2.950301
 H        -0.305233         3.244518        -0.386027
