19
Iteration:  1292charge 0 multiplicity 1
 O         0.496448         0.421395         0.582027
 C        -0.586149         1.207317         0.750247
 C        -1.938155         1.038175         0.391758
 C        -1.809171         1.717523         1.732286
 C        -1.347142         3.187356         1.494518
 C        -0.666963         3.688001         2.741505
 C         0.785058         3.163665         2.533744
 O         1.063353         2.950953         1.172993
 C        -0.252674         2.721798         0.540762
 H         1.216707         1.156835         0.886445
 H        -2.435986         1.604776        -0.445409
 H        -2.173989         0.027449         0.374264
 H        -2.272623         1.494496         2.613360
 H        -1.871500         4.048959         0.944464
 H        -0.583164         4.748406         3.009450
 H        -1.139156         3.181438         3.639269
 H         1.506958         3.899138         2.802102
 H         0.907494         2.281814         3.146646
 H        -0.176967         3.011940        -0.638171
