19
Iteration:  2241
 O         0.282619         0.170499         0.526870
 C        -0.547051         1.267914         0.682083
 C        -1.934106         1.076143         0.331707
 C        -1.607140         1.601601         1.744404
 C        -1.307895         3.105096         1.551104
 C        -0.653807         3.766647         2.778874
 C         0.733019         3.261630         2.616626
 O         0.978648         3.167291         1.135678
 C        -0.141386         2.747933         0.564466
 H         1.201171         0.386629         0.918012
 H        -2.270454         1.738671        -0.492168
 H        -2.062173         0.101133         0.179977
 H        -1.699158         1.195403         2.703664
 H        -2.088993         3.755163         1.122625
 H        -0.702926         4.940173         2.841961
 H        -1.059724         3.388208         3.751974
 H         1.565374         3.836603         3.009143
 H         0.799019         2.254034         3.140242
 H        -0.217626         3.178915        -0.381415
