19
Iteration:  3420
 O         0.292887         0.185966         0.521428
 C        -0.622576         1.213990         0.673333
 C        -1.961255         1.105066         0.183153
 C        -1.747251         1.603313         1.620543
 C        -1.340320         3.133610         1.642063
 C        -0.543704         3.535572         2.943751
 C         0.859303         3.826726         2.398488
 O         1.043782         2.880293         1.317212
 C        -0.164064         2.699224         0.587224
 H         0.875201         0.159479         1.336520
 H        -2.207424         1.837427        -0.642735
 H        -2.360606         0.115863         0.038665
 H        -2.171664         0.939275         2.400024
 H        -2.064101         3.863778         1.326763
 H        -1.062533         4.388330         3.386603
 H        -0.620891         2.822627         3.737799
 H         1.073541         4.885636         2.273139
 H         1.624831         3.462962         3.174346
 H        -0.085906         3.147587        -0.402289
