19
Iteration:  1257charge 0 multiplicity 1
 O         0.380446         0.310143         0.749464
 C        -0.578529         1.279015         0.587485
 C        -2.059323         1.003808         0.270552
 C        -1.684939         1.573439         1.640169
 C        -1.360492         3.130898         1.623681
 C        -0.598188         3.761117         2.747927
 C         0.839309         3.198763         2.564288
 O         1.088203         3.056883         1.171689
 C        -0.255477         2.814312         0.537228
 H         1.095264         0.890525         0.978115
 H        -2.611392         1.575630        -0.446828
 H        -2.169787        -0.088903         0.142178
 H        -1.898038         0.918401         2.529079
 H        -2.189482         3.731296         1.063821
 H        -0.722615         4.897132         2.562644
 H        -0.940037         3.495105         3.757442
 H         1.585632         3.913900         2.983106
 H         1.016395         2.264720         3.086171
 H        -0.142090         3.494902        -0.416440
