19
Iteration:  4016charge 0 multiplicity 1
 O         0.231843         0.061375         0.555817
 C        -0.563156         1.218593         0.686107
 C        -1.926172         1.162180         0.151953
 C        -1.818209         1.666316         1.660915
 C        -1.306743         3.033653         1.581966
 C        -0.594084         3.437425         2.996858
 C         0.825206         3.903535         2.410245
 O         1.111442         2.981401         1.323076
 C        -0.132467         2.664695         0.596834
 H         1.151682         0.333540         0.514988
 H        -2.360922         1.974954        -0.507562
 H        -2.403628         0.206970        -0.025008
 H        -2.351155         1.294815         2.527856
 H        -2.008868         3.914462         1.283234
 H        -1.147371         4.242927         3.542730
 H        -0.385359         2.559459         3.562268
 H         0.634547         4.922792         2.081568
 H         1.741060         3.773963         2.998298
 H        -0.025070         3.142504        -0.421307
