19
Iteration:  2941
 O         0.265896         0.170779         0.442762
 C        -0.628180         1.235684         0.610969
 C        -1.994182         1.146697         0.193015
 C        -1.742715         1.595915         1.601802
 C        -1.263156         3.101784         1.699959
 C        -0.565916         3.571369         2.955174
 C         0.812551         3.909222         2.280540
 O         1.067834         2.730262         1.482550
 C        -0.124956         2.709703         0.644642
 H         0.989541         0.363034         1.019788
 H        -2.453476         1.730497        -0.592686
 H        -2.189388         0.111754         0.283589
 H        -2.075915         0.902420         2.466559
 H        -1.979096         3.845973         1.328621
 H        -1.218520         4.416203         3.163269
 H        -0.515057         2.774649         3.825933
 H         0.647232         4.926873         1.761092
 H         1.568404         4.042436         3.062173
 H         0.114743         3.310052        -0.321088
