19
Iteration:  2226charge 0 multiplicity 1
 O         0.396191         0.246438         0.548986
 C        -0.571067         1.266190         0.670217
 C        -2.000742         1.035331         0.259586
 C        -1.743368         1.547041         1.689106
 C        -1.370374         3.102576         1.600960
 C        -0.569232         3.784321         2.747240
 C         0.879018         3.297975         2.586034
 O         1.059985         3.106793         1.245028
 C        -0.253565         2.760438         0.568115
 H         1.128315         0.545447         1.144309
 H        -2.647184         1.675411        -0.404884
 H        -2.416744        -0.059858         0.186999
 H        -2.195892         0.901869         2.486418
 H        -2.204218         3.705773         1.252451
 H        -0.671769         4.838759         2.554040
 H        -1.059849         3.615015         3.687018
 H         1.582572         4.117005         2.930154
 H         1.112143         2.364839         3.125803
 H        -0.219492         3.219890        -0.491438
