19
Iteration:  2646charge 0 multiplicity 1
 O         0.368749         0.269865         0.542981
 C        -0.587002         1.265702         0.557843
 C        -2.057005         1.130544         0.309183
 C        -1.636381         1.594247         1.642324
 C        -1.327420         3.100983         1.650841
 C        -0.651933         3.615550         2.876674
 C         0.821281         3.716335         2.387601
 O         1.072350         2.707742         1.338180
 C        -0.156994         2.736140         0.596805
 H         1.060232         0.591388         1.167610
 H        -2.586881         1.921637        -0.366751
 H        -2.528402         0.265945         0.023281
 H        -1.932314         0.981561         2.466657
 H        -2.142408         3.777224         1.421751
 H        -1.220950         4.458417         3.067433
 H        -0.750822         3.065052         3.721823
 H         0.985085         4.651564         1.893820
 H         1.430153         3.473875         3.273507
 H        -0.070160         3.343037        -0.390145
