19
Iteration:  1752charge 0 multiplicity 1
 O         0.403602         0.396333         0.538265
 C        -0.586756         1.324326         0.656449
 C        -1.964297         0.966452         0.411691
 C        -1.707646         1.646170         1.707312
 C        -1.420372         3.158496         1.618387
 C        -0.632001         3.872111         2.684274
 C         0.814063         3.205088         2.545179
 O         1.075322         2.840799         1.209600
 C        -0.202526         2.762776         0.570963
 H         1.288239         0.917182         0.684047
 H        -2.423017         1.503572        -0.478339
 H        -2.057713        -0.090436         0.385355
 H        -2.019356         1.122576         2.609096
 H        -2.247502         3.668772         1.148315
 H        -0.774637         4.968256         2.492240
 H        -1.010066         3.648226         3.758110
 H         1.540134         3.883635         2.935400
 H         0.804408         2.302660         3.211815
 H        -0.217146         3.155900        -0.412471
