19
Iteration:  3498
 O         0.319493         0.220128         0.553328
 C        -0.566189         1.276681         0.575081
 C        -2.022719         1.126850         0.137761
 C        -1.740923         1.579228         1.608717
 C        -1.357752         3.024998         1.699447
 C        -0.583410         3.610928         2.859840
 C         0.894001         3.836933         2.448227
 O         1.059742         2.768948         1.396231
 C        -0.198327         2.737315         0.576616
 H         0.651807         0.322113         1.465286
 H        -2.526438         1.857875        -0.591194
 H        -2.219224         0.035390         0.108589
 H        -1.820531         1.034784         2.583863
 H        -2.110631         3.713469         1.304852
 H        -1.135237         4.481117         3.174229
 H        -0.550651         2.784333         3.546365
 H         1.076769         4.817061         2.065004
 H         1.719660         3.636962         3.269562
 H        -0.099956         3.266153        -0.355993
