19
Iteration:  3685charge 0 multiplicity 1
 O         0.264855         0.261502         0.655005
 C        -0.607678         1.312926         0.641078
 C        -1.957358         1.079688         0.176605
 C        -1.748290         1.582074         1.523805
 C        -1.298636         3.139448         1.650639
 C        -0.572510         3.438067         2.944182
 C         0.800650         3.758021         2.420360
 O         1.089880         2.802404         1.319132
 C        -0.166105         2.772264         0.499368
 H         0.970476         0.561370         1.236243
 H        -2.402246         1.832488        -0.471442
 H        -2.193351         0.039207         0.321194
 H        -1.839811         1.017473         2.430028
 H        -2.045857         3.859641         1.461809
 H        -1.098651         4.331775         3.320895
 H        -0.715470         2.681541         3.728871
 H         0.903197         4.757995         1.975411
 H         1.678999         3.670673         3.214343
 H        -0.185407         3.325374        -0.445245
