19
Iteration:  2349
 O         0.462324         0.386482         0.583052
 C        -0.618129         1.250339         0.613462
 C        -2.149961         1.003278         0.236901
 C        -1.698050         1.593346         1.657978
 C        -1.370654         3.054522         1.611342
 C        -0.569799         3.781598         2.792698
 C         0.873883         3.440111         2.552728
 O         1.073305         2.877313         1.249611
 C        -0.237072         2.695187         0.570358
 H         1.088055         0.875292         1.206602
 H        -2.691408         1.843311        -0.373955
 H        -2.557967        -0.001995         0.119396
 H        -1.763441         1.237758         2.686886
 H        -2.064928         3.824221         1.330809
 H        -0.911359         4.825042         2.641510
 H        -0.820189         3.435158         3.759000
 H         1.588013         4.258248         2.734846
 H         1.058084         2.595695         3.229002
 H        -0.104559         3.159012        -0.454436
