19
Iteration:  4608charge 0 multiplicity 1
 O         0.358849         0.198330         0.633801
 C        -0.638926         1.183999         0.655289
 C        -2.007850         1.121374         0.094039
 C        -1.846076         1.555561         1.587761
 C        -1.357910         3.065297         1.648775
 C        -0.508252         3.437816         2.933640
 C         0.920916         3.726292         2.518964
 O         1.051380         3.038529         1.214182
 C        -0.195711         2.749611         0.625573
 H         1.074447         0.840730         0.928985
 H        -2.539042         1.824581        -0.647568
 H        -2.431183         0.125251         0.053975
 H        -2.317017         1.263676         2.473557
 H        -2.009442         3.846364         1.288967
 H        -0.951525         4.317894         3.604240
 H        -0.562834         2.468040         3.567116
 H         1.089499         4.790299         2.282267
 H         1.813663         3.450685         3.116084
 H         0.024004         3.294779        -0.371636
