19
Iteration:  1867charge 0 multiplicity 1
 O         0.424512         0.271391         0.643475
 C        -0.641148         1.171483         0.695249
 C        -2.019731         1.111129         0.194771
 C        -1.810567         1.603946         1.679734
 C        -1.385015         3.020529         1.651501
 C        -0.640994         3.675225         2.756567
 C         0.951416         3.440618         2.536002
 O         1.103169         3.024518         1.169071
 C        -0.220536         2.744944         0.616308
 H         1.144553         0.876439         0.748234
 H        -2.441754         1.865843        -0.480725
 H        -2.438051         0.195226         0.196550
 H        -2.254081         1.072323         2.408186
 H        -2.206064         3.675841         1.175484
 H        -0.899375         4.780829         2.712579
 H        -0.768369         3.340660         3.777069
 H         1.508696         4.423037         2.728369
 H         1.363105         2.699509         3.186770
 H        -0.100401         3.214120        -0.381545
