19
Iteration:   243
 O         0.225432         0.092551         0.542834
 C        -0.610013         1.205811         0.535631
 C        -2.037267         1.138230         0.281700
 C        -1.525484         1.644767         1.707777
 C        -1.329037         3.136841         1.547066
 C        -0.648961         3.642471         2.860269
 C         0.852956         3.802612         2.479011
 O         1.069436         2.816585         1.351681
 C        -0.142629         2.714853         0.551203
 H         1.109749         0.434159         1.025091
 H        -2.401342         1.899741        -0.363548
 H        -2.681216         0.328739         0.332120
 H        -1.963545         1.031135         2.586602
 H        -2.194325         3.590957         1.215844
 H        -1.099486         4.538757         3.319068
 H        -0.733664         2.828822         3.584775
 H         1.180728         4.741630         2.228705
 H         1.508663         3.433609         3.188717
 H        -0.008102         3.286620        -0.351908
