19
Iteration:   653charge 0 multiplicity 1
 O         0.411812         0.337848         0.746586
 C        -0.563712         1.308283         0.698344
 C        -1.959156         1.126124         0.271084
 C        -1.709087         1.687355         1.709915
 C        -1.441198         3.104030         1.583479
 C        -0.589829         3.719176         2.685174
 C         0.815907         3.058867         2.515802
 O         1.033981         2.996730         1.146238
 C        -0.254988         2.811577         0.574600
 H         1.364576         0.803586         0.782455
 H        -2.384248         1.734523        -0.712487
 H        -2.202197         0.027251         0.265379
 H        -1.977155         1.246423         2.649673
 H        -2.215280         3.800671         1.350449
 H        -0.410970         4.785234         2.319380
 H        -0.973834         3.717729         3.761364
 H         1.586682         3.645826         2.928591
 H         0.841297         2.035196         2.961122
 H        -0.189505         3.167121        -0.416132
