19
Iteration:  3183
 O         0.265294         0.079094         0.491519
 C        -0.581279         1.202042         0.656092
 C        -2.014232         1.164010         0.153317
 C        -1.739113         1.531552         1.615241
 C        -1.289783         3.014229         1.633171
 C        -0.569470         3.595691         2.906955
 C         0.830672         3.904871         2.426514
 O         1.113028         2.929180         1.336406
 C        -0.132053         2.710185         0.673077
 H         0.795003         0.252468         1.271598
 H        -2.495192         1.858364        -0.460780
 H        -2.401250         0.144010        -0.188743
 H        -2.343750         1.110809         2.436268
 H        -2.163093         3.640786         1.299330
 H        -1.087469         4.509076         3.325807
 H        -0.574750         2.995000         3.917481
 H         0.926115         5.011081         2.072533
 H         1.544991         3.731061         3.232562
 H        -0.154558         3.230221        -0.295547
