19
Iteration:  3117
 O         0.267407         0.202459         0.625613
 C        -0.624062         1.265841         0.597794
 C        -2.048654         1.197864         0.138876
 C        -1.686590         1.596961         1.613049
 C        -1.278660         3.025630         1.613097
 C        -0.538004         3.424212         2.929720
 C         0.721296         3.874739         2.372931
 O         1.123431         2.840320         1.326509
 C        -0.104649         2.719808         0.631626
 H         0.725197         0.213297         1.501727
 H        -2.538864         1.886900        -0.475465
 H        -2.378969         0.148108         0.047081
 H        -1.798323         1.056691         2.506895
 H        -1.936869         3.848644         1.256124
 H        -1.060244         4.303372         3.357339
 H        -0.344110         2.578109         3.749507
 H         0.679594         4.916048         1.972078
 H         1.486486         3.990451         3.102926
 H        -0.223124         3.202349        -0.385874
