19
Iteration:  3343charge 0 multiplicity 1
 O         0.279211         0.168132         0.455227
 C        -0.563228         1.188652         0.687407
 C        -1.921078         1.094431         0.243666
 C        -1.866715         1.720880         1.598678
 C        -1.319232         3.074619         1.635899
 C        -0.566051         3.542018         2.938433
 C         0.805639         3.781802         2.374339
 O         1.112512         2.898295         1.335335
 C        -0.118468         2.690647         0.659133
 H         1.084571         0.119484         0.958848
 H        -2.099505         1.790025        -0.596496
 H        -2.611876         0.122193         0.164329
 H        -2.124380         1.312648         2.572802
 H        -2.133189         3.696596         1.336562
 H        -1.064659         4.413358         3.368877
 H        -0.608785         2.753037         3.692887
 H         0.566175         4.769462         1.902484
 H         1.551453         3.708086         3.286988
 H        -0.084488         3.226784        -0.355811
