19
Iteration:  2257
 O         0.247913         0.078276         0.516902
 C        -0.441743         1.298361         0.694360
 C        -1.941315         1.106392         0.415371
 C        -1.504970         1.627300         1.753375
 C        -1.383457         3.160758         1.528319
 C        -0.763661         3.735119         2.755548
 C         0.760574         3.176952         2.596711
 O         1.092164         3.264581         1.202929
 C        -0.181667         2.813498         0.454661
 H         1.189792         0.149685         0.711209
 H        -2.605938         1.779775        -0.139360
 H        -2.373237        -0.024190         0.625785
 H        -1.989227         1.044138         2.617373
 H        -2.349282         3.555125         1.155149
 H        -0.710298         4.780102         2.695813
 H        -1.259272         3.319161         3.661061
 H         1.478699         3.772566         3.207720
 H         0.779224         2.138871         2.868251
 H         0.027728         3.089928        -0.673179
