19
Iteration:    88charge 0 multiplicity 1
 O         0.219219         0.091808         0.650725
 C        -0.504943         1.302949         0.683595
 C        -1.833733         1.166165         0.322496
 C        -1.731829         1.630660         1.726385
 C        -1.373945         3.105519         1.574124
 C        -0.557633         3.723706         2.777881
 C         0.826444         3.191495         2.543811
 O         1.016873         3.259404         1.113736
 C        -0.243231         2.749426         0.549411
 H         1.241865         0.236817         0.901255
 H        -2.396326         1.687989        -0.482030
 H        -2.031360         0.043818         0.302598
 H        -2.116472         1.127605         2.564566
 H        -2.105612         3.756673         1.223310
 H        -0.527957         4.811111         2.527533
 H        -1.014856         3.497708         3.756643
 H         1.626380         3.650746         3.070183
 H         0.943692         2.152094         2.899922
 H        -0.225866         3.085441        -0.496621
