19
Iteration:  3373charge 0 multiplicity 1
 O         0.294611         0.241097         0.587959
 C        -0.641005         1.233380         0.616136
 C        -2.071088         1.157603         0.169104
 C        -1.782816         1.547069         1.590141
 C        -1.302872         3.042695         1.607826
 C        -0.508372         3.543641         2.874863
 C         0.846733         3.869985         2.373661
 O         1.081432         2.841620         1.430238
 C        -0.110972         2.676343         0.623074
 H         1.145484         0.538711         0.954916
 H        -2.517111         1.910494        -0.489133
 H        -2.578390         0.155858        -0.029251
 H        -2.086870         1.089946         2.510238
 H        -2.200488         3.560722         1.204623
 H        -1.070060         4.095169         3.726507
 H        -0.272417         2.627006         3.488214
 H         0.964126         4.869079         1.877624
 H         1.584756         3.927313         3.170831
 H         0.008508         3.144935        -0.327164
