19
Iteration:  4660
 O         0.327769         0.255291         0.617857
 C        -0.569722         1.271454         0.572386
 C        -2.058459         1.101602         0.193701
 C        -1.736423         1.575511         1.520551
 C        -1.368921         3.074370         1.662606
 C        -0.515395         3.398088         2.964506
 C         0.858290         3.815958         2.468739
 O         1.095974         2.885698         1.329861
 C        -0.269159         2.776877         0.493188
 H         1.063089         0.615208         1.208582
 H        -2.399147         1.699530        -0.644708
 H        -2.486028         0.160745         0.218388
 H        -2.021731         1.032238         2.469852
 H        -2.105827         3.924598         1.437364
 H        -1.078823         4.219235         3.503108
 H        -0.537632         2.614999         3.671125
 H         1.173468         4.864324         2.274367
 H         1.602583         3.278515         3.217858
 H         0.075674         3.262335        -0.398509
