19
Iteration:  4644
 O         0.338589         0.273824         0.666826
 C        -0.611978         1.315490         0.582941
 C        -1.960480         1.104496         0.134315
 C        -1.710357         1.600464         1.625497
 C        -1.361008         3.095017         1.603844
 C        -0.556408         3.418160         2.914088
 C         0.920281         3.652660         2.457597
 O         0.976859         2.898740         1.255527
 C        -0.193988         2.835690         0.607541
 H         0.737333         0.406447         1.559722
 H        -2.513767         1.844293        -0.469250
 H        -2.191452        -0.017322        -0.066188
 H        -2.011531         0.969073         2.453875
 H        -2.191220         3.725745         1.358249
 H        -0.896722         4.157110         3.606896
 H        -0.437806         2.436695         3.496557
 H         0.914463         4.694624         2.104496
 H         1.726798         3.456908         3.056488
 H        -0.346055         3.400245        -0.338319
