19
Iteration:   799
 O         0.302961         0.174101         0.498460
 C        -0.595078         1.244891         0.663306
 C        -2.022667         1.208588         0.331871
 C        -1.658203         1.529051         1.721332
 C        -1.330409         3.025408         1.547070
 C        -0.631224         3.809476         2.688201
 C         0.818575         3.430913         2.624562
 O         1.082181         3.001137         1.244009
 C        -0.155044         2.699163         0.632662
 H         1.195171         0.456349         0.888030
 H        -2.512616         2.027781        -0.365074
 H        -2.507420         0.169320         0.128515
 H        -1.786037         1.093073         2.733781
 H        -2.065441         3.715255         1.082168
 H        -0.894245         4.960440         2.542251
 H        -1.212697         3.567903         3.585359
 H         1.522604         4.289586         2.802017
 H         1.079818         2.576289         3.255247
 H         0.057539         3.062987        -0.408820
