19
Iteration:  1398
 O         0.369645         0.222316         0.444808
 C        -0.631287         1.175596         0.678015
 C        -2.010002         0.900973         0.326530
 C        -1.780668         1.668757         1.671237
 C        -1.354255         3.168683         1.607045
 C        -0.590397         3.823256         2.771569
 C         0.856714         3.416207         2.621991
 O         1.072835         3.065900         1.231246
 C        -0.150262         2.708373         0.543689
 H         1.146809         0.301750         1.122377
 H        -2.552645         1.396561        -0.507540
 H        -2.281125        -0.093332         0.459934
 H        -2.317834         1.269381         2.480682
 H        -2.032346         3.949134         1.134710
 H        -0.637447         4.978064         2.831637
 H        -0.843221         3.464516         3.775001
 H         1.532763         4.254859         2.992220
 H         1.073454         2.537074         3.316196
 H        -0.095812         3.088172        -0.439454
