19
Iteration:   174
 O         0.399308         0.234829         0.560533
 C        -0.599922         1.220843         0.592213
 C        -2.063037         1.082537         0.333006
 C        -1.792308         1.631749         1.649517
 C        -1.351100         3.096434         1.606616
 C        -0.596712         3.763491         2.839539
 C         0.908729         3.536910         2.564722
 O         1.022689         2.847537         1.214607
 C        -0.147739         2.725688         0.570891
 H         1.173201         0.732666         0.584248
 H        -2.614675         1.678647        -0.464590
 H        -2.410172        -0.024613         0.333379
 H        -2.195098         1.213863         2.522288
 H        -2.078412         3.843220         1.274192
 H        -0.887089         4.865231         2.960919
 H        -0.932297         3.288980         3.798974
 H         1.477312         4.418731         2.435975
 H         1.535724         2.989270         3.358464
 H         0.033950         3.074474        -0.453418
