19
Iteration:   152charge 0 multiplicity 1
 O         0.236738         0.186707         0.535058
 C        -0.589088         1.287618         0.768789
 C        -1.980385         1.144816         0.287324
 C        -1.551200         1.614325         1.762709
 C        -1.340234         3.103017         1.514073
 C        -0.662528         3.640099         2.749512
 C         0.853231         3.458236         2.474897
 O         1.075832         2.986985         1.215317
 C        -0.190694         2.786693         0.564709
 H         0.916710         0.116245         1.395695
 H        -2.520137         1.890408        -0.385047
 H        -2.240232         0.010840         0.111593
 H        -1.783097         1.113897         2.641280
 H        -2.205360         3.673922         1.203953
 H        -0.828312         4.776474         2.837222
 H        -1.052159         3.217735         3.723946
 H         1.431860         4.266924         2.800711
 H         1.242776         2.727876         3.301090
 H        -0.281711         3.108751        -0.475882
