19
Iteration:  2031
 O         0.461863         0.400444         0.511369
 C        -0.583145         1.315533         0.691421
 C        -2.017310         0.906664         0.346636
 C        -1.670772         1.758896         1.679154
 C        -1.282330         3.195382         1.512087
 C        -0.697219         3.725195         2.801355
 C         0.857631         3.212357         2.582118
 O         0.991995         2.872825         1.244536
 C        -0.272252         2.796881         0.498826
 H         1.255666         0.881748         0.904057
 H        -2.654718         1.127424        -0.418026
 H        -2.107289        -0.190618         0.766145
 H        -2.175170         1.391949         2.647284
 H        -2.100702         3.888141         1.200139
 H        -0.658048         4.912159         3.035603
 H        -1.280227         3.161464         3.574750
 H         1.497294         4.110797         2.819350
 H         1.199365         2.330120         3.140882
 H        -0.101747         3.185603        -0.479257
