19
Iteration:   756charge 0 multiplicity 1
 O         0.271782        -0.021990         0.529744
 C        -0.553694         1.206305         0.593559
 C        -2.006239         1.071794         0.334747
 C        -1.721016         1.616283         1.691312
 C        -1.284136         3.110193         1.537041
 C        -0.585089         3.812860         2.736339
 C         0.837615         3.264984         2.655525
 O         1.030719         3.314934         1.243479
 C        -0.146044         2.807680         0.555516
 H         0.949591         0.100103         1.326563
 H        -2.552904         1.712289        -0.425320
 H        -2.257020        -0.033417         0.190077
 H        -2.023138         1.118674         2.664782
 H        -2.205178         3.558705         1.104794
 H        -0.428109         4.959070         2.580468
 H        -0.982261         3.754076         3.742750
 H         1.682529         3.874840         3.125143
 H         0.861652         2.257819         3.098085
 H        -0.232342         3.432308        -0.401280
