19
Iteration:  4718charge 0 multiplicity 1
 O         0.285447         0.139821         0.348666
 C        -0.579951         1.202000         0.546589
 C        -2.031081         1.190932         0.178956
 C        -1.614626         1.496237         1.650705
 C        -1.308743         3.065883         1.684569
 C        -0.626688         3.591402         2.942761
 C         0.833842         3.924686         2.392670
 O         1.011831         2.860217         1.470660
 C        -0.140261         2.697355         0.717272
 H         0.744619        -0.145371         1.134774
 H        -2.239142         1.974720        -0.573842
 H        -2.462118         0.131232         0.055179
 H        -1.998979         1.012623         2.445500
 H        -2.048598         3.726484         1.210998
 H        -1.059925         4.550103         3.392892
 H        -0.389746         2.787947         3.700142
 H         0.864040         4.983532         1.990975
 H         1.697533         3.801229         3.084514
 H        -0.105864         3.243964        -0.279883
