19
Iteration:  2415charge 0 multiplicity 1
 O         0.305551         0.106138         0.500982
 C        -0.553883         1.169704         0.661787
 C        -2.006946         1.155461         0.360992
 C        -1.634625         1.597558         1.737473
 C        -1.311301         3.020926         1.589957
 C        -0.633307         3.674999         2.715381
 C         0.809580         3.316874         2.594298
 O         1.033065         3.360944         1.219482
 C        -0.125492         2.723072         0.559904
 H         1.023963         0.133695         1.193575
 H        -2.564695         1.915400        -0.269812
 H        -2.441919         0.007290         0.280224
 H        -2.332102         1.323731         2.612075
 H        -2.149091         3.562018         1.169544
 H        -0.588026         4.729124         2.339874
 H        -0.996469         3.675740         3.711139
 H         1.579254         3.987016         2.971458
 H         0.814047         2.325754         3.017639
 H        -0.136761         3.069164        -0.561491
