19
Iteration:  2097
 O         0.323975         0.099123         0.511470
 C        -0.552645         1.213030         0.639539
 C        -1.925533         1.186730         0.262965
 C        -1.556562         1.528560         1.751113
 C        -1.359398         3.112414         1.664276
 C        -0.655738         3.894307         2.723766
 C         0.781513         3.255312         2.587621
 O         1.026962         3.162595         1.213888
 C        -0.244220         2.749953         0.552672
 H         1.134432         0.328245         1.099853
 H        -2.281802         1.954806        -0.324256
 H        -2.330257         0.147786         0.141889
 H        -1.735871         0.906461         2.718221
 H        -2.320486         3.583692         1.402426
 H        -0.855567         5.030979         2.532675
 H        -1.111664         3.513363         3.646774
 H         1.670605         3.833043         2.983821
 H         0.718989         2.254805         3.078130
 H        -0.201204         3.078694        -0.442100
