19
Iteration:    36charge 0 multiplicity 1
 O         0.437560         0.498211         0.713083
 C        -0.645889         1.315022         0.597000
 C        -2.039063         0.930269         0.340530
 C        -1.825223         1.731388         1.586170
 C        -1.274087         3.140698         1.554068
 C        -0.521210         3.681622         2.790063
 C         0.882712         3.177272         2.534630
 O         0.990437         2.815525         1.179106
 C        -0.234179         2.836760         0.559065
 H         1.103550         1.122228         0.984188
 H        -2.563873         1.189881        -0.479337
 H        -2.244137        -0.102903         0.679645
 H        -2.260878         1.250160         2.422113
 H        -2.009413         3.955622         1.191617
 H        -0.574740         4.720196         2.661398
 H        -0.941299         3.388117         3.710797
 H         1.702789         3.920083         2.733961
 H         1.191879         2.413065         3.241078
 H        -0.219723         3.466325        -0.329572
