19
Iteration:  3924
 O         0.315470         0.255325         0.489885
 C        -0.628208         1.231983         0.720090
 C        -2.043096         1.125035         0.164313
 C        -1.783342         1.601325         1.598984
 C        -1.302114         3.015558         1.643522
 C        -0.531906         3.582042         2.892086
 C         0.837625         3.773345         2.417217
 O         1.091256         2.894445         1.354864
 C        -0.134010         2.654864         0.662068
 H         1.214966         0.626958         0.742835
 H        -2.567025         1.738154        -0.523226
 H        -2.305637         0.092886         0.316004
 H        -2.366881         1.113576         2.444544
 H        -2.170730         3.625840         1.156057
 H        -0.941368         4.568144         3.073869
 H        -0.578065         2.829438         3.764214
 H         0.918915         4.770922         2.045839
 H         1.559089         3.532553         3.269966
 H        -0.098103         2.987882        -0.350794
