19
Iteration:   935
 O         0.293745         0.213530         0.617545
 C        -0.571789         1.267661         0.726723
 C        -1.939235         0.960225         0.284789
 C        -1.643184         1.645260         1.631475
 C        -1.315031         3.174483         1.557580
 C        -0.586190         3.777608         2.762532
 C         0.822320         3.176821         2.590799
 O         1.025621         3.181007         1.148542
 C        -0.205556         2.789277         0.551800
 H         0.886013         0.422564         1.370169
 H        -2.474926         1.489121        -0.370735
 H        -2.220715        -0.098792         0.327659
 H        -2.179261         1.141329         2.510154
 H        -2.084821         3.881523         1.225452
 H        -0.637457         4.823918         2.764100
 H        -1.185371         3.464083         3.665468
 H         1.678237         3.687358         3.054582
 H         0.705207         2.138337         3.008333
 H        -0.179387         3.349251        -0.455591
