19
Iteration:  3310
 O         0.178514         0.148657         0.595920
 C        -0.576922         1.236485         0.542004
 C        -2.071983         1.109168         0.183777
 C        -1.660518         1.560168         1.590197
 C        -1.266254         2.965367         1.600754
 C        -0.578866         3.591168         2.833213
 C         0.882395         3.811446         2.479652
 O         1.070023         2.972270         1.363534
 C        -0.142388         2.722249         0.685813
 H         0.992763         0.488020         1.033181
 H        -2.412791         1.949606        -0.407537
 H        -2.532011         0.042799        -0.036663
 H        -1.701485         0.970942         2.489416
 H        -2.081667         3.600905         1.345720
 H        -1.130045         4.487861         3.012208
 H        -0.656866         2.820340         3.544488
 H         1.065711         4.922258         2.255856
 H         1.670406         3.522980         3.301787
 H        -0.069720         3.396713        -0.240761
