19
Iteration:  4303charge 0 multiplicity 1
 O         0.195434         0.024483         0.579486
 C        -0.514090         1.240996         0.630008
 C        -1.969978         1.233704         0.149636
 C        -1.764964         1.562642         1.574873
 C        -1.350211         3.066364         1.722558
 C        -0.577967         3.465018         3.022436
 C         0.836564         3.876591         2.347091
 O         1.109569         3.013667         1.321620
 C        -0.118672         2.689442         0.674843
 H         1.115007         0.170213         0.245422
 H        -2.515973         1.839133        -0.707244
 H        -2.214703         0.162703         0.025032
 H        -2.358813         0.948423         2.204207
 H        -2.198921         3.766331         1.434748
 H        -1.043838         4.285832         3.482418
 H        -0.345895         2.562414         3.529022
 H         0.728086         4.920159         1.999094
 H         1.736139         4.003918         2.892095
 H        -0.119485         3.204396        -0.336056
