19
Iteration:   272
 O         0.096247         0.081645         0.409141
 C        -0.590934         1.222649         0.726478
 C        -2.048138         1.074359         0.179707
 C        -1.832015         1.554493         1.682436
 C        -1.212066         3.023572         1.591465
 C        -0.555574         3.573983         2.845475
 C         0.837018         3.926936         2.396979
 O         1.212097         2.973204         1.380347
 C        -0.053024         2.687832         0.771556
 H         0.982442         0.072432         1.016600
 H        -2.496229         1.841608        -0.561379
 H        -2.401631         0.042078         0.048456
 H        -2.164133         0.964787         2.535962
 H        -1.963513         3.761809         1.098028
 H        -1.008205         4.565908         2.858786
 H        -0.667091         2.912443         3.716012
 H         0.703638         5.039497         1.960665
 H         1.721564         3.909908         3.148120
 H        -0.032906         3.333221        -0.146477
