19
Iteration:   105
 O         0.241772        -0.007117         0.570541
 C        -0.528645         1.162703         0.771235
 C        -2.043483         0.989934         0.241486
 C        -1.654027         1.607664         1.642889
 C        -1.343130         3.150543         1.630828
 C        -0.533953         3.841914         2.756948
 C         0.864768         3.181990         2.569066
 O         0.982070         3.385334         1.159498
 C        -0.115170         2.876000         0.570642
 H         1.006786        -0.000430         1.231623
 H        -2.350639         1.730367        -0.556913
 H        -2.476083         0.025306         0.151178
 H        -2.005857         1.118334         2.603617
 H        -2.277030         3.745656         1.266763
 H        -0.437338         4.927102         2.575324
 H        -0.988381         3.673303         3.758849
 H         1.694767         3.713675         3.138325
 H         0.946625         2.144398         3.032658
 H        -0.302210         3.248729        -0.451898
