19
Iteration:  1625
 O         0.318774         0.267934         0.724638
 C        -0.530848         1.326845         0.597860
 C        -1.963368         1.119997         0.344236
 C        -1.632235         1.578554         1.716910
 C        -1.367327         3.080269         1.575276
 C        -0.577981         3.673538         2.749778
 C         0.833232         3.290430         2.562749
 O         0.978997         3.055014         1.125935
 C        -0.243592         2.802864         0.457222
 H         1.009061         0.290152         1.463978
 H        -2.490851         1.686019        -0.433465
 H        -1.953950         0.019924         0.190386
 H        -1.745967         0.951798         2.618949
 H        -2.264003         3.691999         1.315915
 H        -0.648739         4.733565         2.603199
 H        -1.116171         3.466238         3.604354
 H         1.526048         4.014175         3.057816
 H         0.947782         2.281915         3.112468
 H        -0.095104         3.332160        -0.563641
