19
Iteration:  1216
 O         0.362293         0.065770         0.548758
 C        -0.493333         1.192468         0.668643
 C        -1.982524         1.095911         0.375102
 C        -1.656002         1.667764         1.732789
 C        -1.379338         3.116889         1.529962
 C        -0.648120         3.780049         2.759941
 C         0.800399         3.237386         2.570239
 O         1.004448         3.244787         1.172722
 C        -0.176929         2.792859         0.556510
 H         0.970067        -0.006103         1.358677
 H        -2.098974         1.813106        -0.541218
 H        -2.379223         0.110373         0.137830
 H        -2.129108         1.262307         2.603283
 H        -2.205025         3.773228         1.254604
 H        -0.496592         4.851598         2.777247
 H        -1.114580         3.537338         3.750791
 H         1.627832         3.813835         2.996523
 H         0.892643         2.177472         2.951270
 H        -0.353487         3.202437        -0.523873
