19
Iteration:   829
 O         0.404916         0.294402         0.515834
 C        -0.640330         1.256485         0.588949
 C        -2.059410         0.997683         0.348619
 C        -1.783625         1.648610         1.676608
 C        -1.295849         3.160611         1.534761
 C        -0.599520         3.805549         2.783912
 C         0.843941         3.423739         2.640436
 O         1.058146         2.835422         1.266424
 C        -0.173782         2.730914         0.532377
 H         1.238808         0.892769         0.789597
 H        -2.637939         1.535140        -0.532041
 H        -2.279974        -0.105029         0.607288
 H        -2.065644         1.407208         2.758237
 H        -2.039242         3.845354         1.066677
 H        -0.776381         4.929809         2.788560
 H        -1.112072         3.381890         3.644264
 H         1.566622         4.194839         2.744046
 H         1.126549         2.660368         3.390683
 H         0.222100         2.990686        -0.413984
