19
Iteration:  1090
 O         0.364555         0.246373         0.489541
 C        -0.578212         1.295295         0.673876
 C        -2.084363         0.931667         0.441160
 C        -1.703172         1.628793         1.714423
 C        -1.301217         3.147533         1.456307
 C        -0.593833         3.859085         2.666249
 C         0.735079         3.134934         2.691555
 O         1.148366         3.147357         1.242386
 C        -0.189835         2.792290         0.544203
 H         1.227588         0.743983         0.771015
 H        -2.597902         1.342438        -0.352335
 H        -2.116713        -0.089427         0.466940
 H        -2.012374         1.216038         2.638695
 H        -2.150288         3.823424         1.251916
 H        -0.597419         4.927191         2.484453
 H        -1.129897         3.586842         3.565483
 H         1.435479         3.574974         3.390558
 H         0.533066         2.110359         2.968704
 H        -0.056960         3.096398        -0.521618
