19
Iteration:  1833charge 0 multiplicity 1
 O         0.318736         0.208332         0.534562
 C        -0.571217         1.274295         0.712078
 C        -1.946755         1.058724         0.296945
 C        -1.621088         1.649325         1.715353
 C        -1.408920         3.138634         1.581477
 C        -0.632882         3.743684         2.746625
 C         0.842962         3.303242         2.570445
 O         1.019723         3.068163         1.218519
 C        -0.167408         2.747385         0.528025
 H         1.120493         0.511662         1.111478
 H        -2.621789         1.538106        -0.397090
 H        -2.253718         0.027605         0.375201
 H        -1.879614         1.041820         2.562195
 H        -2.351892         3.614313         1.150674
 H        -0.659546         4.896349         2.610337
 H        -1.033673         3.489985         3.777449
 H         1.455776         4.160995         2.974369
 H         1.073711         2.422408         3.157132
 H        -0.051172         2.992183        -0.554918
