19
Iteration:    96charge 0 multiplicity 1
 O         0.220262         0.012651         0.609603
 C        -0.489701         1.253385         0.717874
 C        -1.893331         1.074352         0.314706
 C        -1.727742         1.617023         1.688479
 C        -1.387314         3.133431         1.581156
 C        -0.526133         3.783824         2.775393
 C         0.850634         3.179022         2.598530
 O         1.011672         3.335572         1.145377
 C        -0.228212         2.795796         0.523307
 H         1.126742         0.172224         1.033863
 H        -2.282796         1.805715        -0.517217
 H        -2.262539         0.034979         0.250257
 H        -2.085326         0.961901         2.476885
 H        -2.200164         3.818659         1.252599
 H        -0.384804         4.905976         2.629717
 H        -0.967993         3.700467         3.819136
 H         1.658567         3.794297         2.946466
 H         0.856703         2.064149         2.767490
 H        -0.202319         3.233336        -0.500412
