19
Iteration:  3942
 O         0.285459         0.195102         0.604261
 C        -0.568456         1.277673         0.599576
 C        -1.980817         1.146232         0.166063
 C        -1.770056         1.508477         1.671374
 C        -1.361563         3.057063         1.616896
 C        -0.595045         3.558947         2.895736
 C         0.961305         3.824923         2.386439
 O         1.029994         2.811029         1.340621
 C        -0.196004         2.749238         0.617295
 H         1.088856         0.684227         0.950220
 H        -2.296386         2.075294        -0.476343
 H        -2.295564         0.144592        -0.128390
 H        -2.040486         0.862994         2.518215
 H        -2.019485         3.842428         1.421771
 H        -1.090168         4.386358         3.417248
 H        -0.647269         2.722024         3.593643
 H         1.040728         4.870620         1.968611
 H         1.652438         3.562226         3.140508
 H        -0.165414         3.366456        -0.328924
