19
Iteration:   969
 O         0.361849         0.327286         0.730938
 C        -0.576302         1.279183         0.629774
 C        -2.095734         1.118439         0.316799
 C        -1.627659         1.593148         1.645805
 C        -1.325591         3.100062         1.502210
 C        -0.659331         3.567061         2.704370
 C         0.883929         3.314631         2.566984
 O         1.070534         3.011803         1.179461
 C        -0.186643         2.838257         0.546347
 H         0.912119         0.618332         1.410708
 H        -2.576566         1.813744        -0.205724
 H        -2.486417         0.089635         0.225625
 H        -1.938546         1.132043         2.646608
 H        -2.201788         3.641103         1.106490
 H        -0.699404         4.615207         2.786119
 H        -1.151605         3.128973         3.592640
 H         1.508391         4.176134         2.811542
 H         1.115573         2.517684         3.290972
 H        -0.196699         3.214275        -0.551452
