19
Iteration:   454charge 0 multiplicity 1
 O         0.379042         0.277105         0.595576
 C        -0.563806         1.290377         0.741577
 C        -1.961910         1.088283         0.363833
 C        -1.694345         1.613877         1.750497
 C        -1.428051         3.169369         1.619905
 C        -0.576804         3.842797         2.671486
 C         0.764174         3.026292         2.508873
 O         1.042779         3.162951         1.181385
 C        -0.200706         2.711525         0.526054
 H         1.343084         0.564102         0.866755
 H        -2.352194         1.694499        -0.516339
 H        -2.139825         0.030239         0.363045
 H        -2.018790         1.037271         2.619890
 H        -2.159524         3.711613         1.097441
 H        -0.418643         4.933970         2.395888
 H        -0.890091         3.706029         3.750974
 H         1.583312         3.497514         3.050331
 H         0.519364         2.015600         2.895949
 H        -0.130786         2.967036        -0.508864
