19
Iteration:  3888
 O         0.271326         0.150276         0.422561
 C        -0.560675         1.284542         0.632708
 C        -1.991144         1.116746         0.284325
 C        -1.661049         1.614024         1.639821
 C        -1.338306         3.051500         1.536434
 C        -0.572896         3.570632         2.868648
 C         0.818993         3.782251         2.457399
 O         1.015078         2.887549         1.419384
 C        -0.130778         2.723116         0.581793
 H         0.955316         0.196163         1.140473
 H        -2.787855         1.594947        -0.397202
 H        -2.320452         0.063287         0.320487
 H        -2.041120         1.209790         2.568757
 H        -2.132313         3.797362         1.336337
 H        -0.940218         4.463701         3.411833
 H        -0.673804         2.784703         3.656232
 H         1.150067         4.786958         2.205155
 H         1.510430         3.638296         3.250962
 H         0.077199         3.237507        -0.351539
