19
Iteration:  3631charge 0 multiplicity 1
 O         0.296673         0.166880         0.519219
 C        -0.634150         1.178664         0.675508
 C        -1.966655         1.161373         0.130035
 C        -1.764727         1.573162         1.669661
 C        -1.320093         3.008755         1.593360
 C        -0.585854         3.539466         2.912071
 C         0.811319         3.784039         2.406707
 O         1.121723         2.913170         1.351003
 C        -0.129686         2.737013         0.692597
 H         1.034111         0.709447         0.807493
 H        -2.293122         1.918072        -0.718905
 H        -2.421400         0.076957        -0.001781
 H        -2.395586         1.367648         2.521206
 H        -2.082892         3.636789         1.185040
 H        -0.991283         4.499217         3.248546
 H        -0.846003         2.995957         3.798927
 H         0.953826         4.748872         1.949791
 H         1.705562         3.731913         3.158477
 H        -0.126153         3.328190        -0.195240
