19
Iteration:  2175charge 0 multiplicity 1
 O         0.445944         0.335608         0.648245
 C        -0.560357         1.312213         0.618720
 C        -2.002500         1.064307         0.294484
 C        -1.610381         1.629997         1.675189
 C        -1.461368         3.153268         1.558645
 C        -0.593194         3.710556         2.794100
 C         0.877447         3.323749         2.599898
 O         0.944777         2.854704         1.168031
 C        -0.260809         2.795987         0.532338
 H         1.235755         0.856349         0.910863
 H        -2.398998         1.622650        -0.563556
 H        -2.304737         0.110731         0.262657
 H        -1.859079         1.087397         2.574866
 H        -2.355782         3.687654         1.174727
 H        -0.829021         4.837143         2.976446
 H        -0.924630         3.297375         3.776016
 H         1.678091         4.047137         2.797865
 H         1.170251         2.435688         3.205552
 H        -0.181480         3.190083        -0.427371
