19
Iteration:  2890
 O         0.303401         0.117003         0.512771
 C        -0.590034         1.204522         0.650669
 C        -2.033202         1.250300         0.229301
 C        -1.750336         1.580153         1.653896
 C        -1.318365         2.991792         1.613584
 C        -0.576274         3.553235         2.868771
 C         0.817295         3.796644         2.446325
 O         1.073454         2.970833         1.313983
 C        -0.089307         2.657279         0.595767
 H         0.975774         0.246538         1.247729
 H        -2.405179         2.179161        -0.372572
 H        -2.432329         0.285255         0.046941
 H        -2.165694         1.289831         2.594618
 H        -2.117230         3.601444         1.174540
 H        -1.076005         4.382143         3.324663
 H        -0.572774         2.742049         3.483743
 H         0.915895         4.820054         2.320554
 H         1.539894         3.580198         3.216630
 H        -0.057199         3.149696        -0.335616
