19
Iteration:  1875charge 0 multiplicity 1
 O         0.383080         0.292689         0.663406
 C        -0.611800         1.263952         0.713335
 C        -1.997653         1.098326         0.202963
 C        -1.765475         1.535851         1.609457
 C        -1.410801         3.079321         1.642600
 C        -0.572887         3.674188         2.775309
 C         0.903436         3.435886         2.537911
 O         1.083034         3.010174         1.170795
 C        -0.227155         2.694034         0.594180
 H         1.216366         0.673554         0.735333
 H        -2.405658         1.850700        -0.467232
 H        -2.350703         0.045530         0.171919
 H        -2.259034         1.036920         2.451477
 H        -2.137803         3.889659         1.455691
 H        -0.785936         4.834445         2.831247
 H        -0.930224         3.290454         3.818135
 H         1.435774         4.383980         2.491702
 H         1.377166         2.746779         3.275087
 H        -0.278211         3.118369        -0.388179
