19
Iteration:  4641charge 0 multiplicity 1
 O         0.332196         0.282113         0.666467
 C        -0.606947         1.316929         0.623024
 C        -1.948791         1.120655         0.118012
 C        -1.709638         1.575343         1.605471
 C        -1.336342         3.092934         1.628864
 C        -0.555301         3.405131         2.886951
 C         0.875827         3.641079         2.436529
 O         0.986028         2.905935         1.235829
 C        -0.205792         2.834955         0.649641
 H         0.695077         0.422339         1.575735
 H        -2.612080         1.812995        -0.493054
 H        -2.148448         0.021943         0.016900
 H        -1.956320         1.056775         2.448954
 H        -2.104518         3.777554         1.295780
 H        -0.911522         4.222151         3.663876
 H        -0.456504         2.465135         3.569856
 H         0.932942         4.666760         2.047713
 H         1.760854         3.352103         3.050853
 H        -0.298031         3.446781        -0.365874
