19
Iteration:  3048charge 0 multiplicity 1
 O         0.362242         0.216951         0.572464
 C        -0.571785         1.298284         0.627016
 C        -2.076132         1.164460         0.273027
 C        -1.769346         1.636684         1.610795
 C        -1.330960         3.067144         1.616255
 C        -0.645938         3.507720         2.904632
 C         0.778108         3.692943         2.469758
 O         1.192370         2.877261         1.234899
 C        -0.173888         2.667006         0.578649
 H         1.191009         0.432061         0.974216
 H        -2.546704         1.841616        -0.451211
 H        -2.464276         0.156209         0.256499
 H        -2.001877         1.191479         2.637480
 H        -2.083520         3.811379         1.227807
 H        -1.042063         4.487100         3.175443
 H        -0.785265         2.724760         3.746433
 H         1.019781         4.713882         2.152508
 H         1.499661         3.619000         3.372532
 H        -0.027543         3.193917        -0.342663
