19
Iteration:   499
 O         0.359066         0.247558         0.564522
 C        -0.612751         1.293643         0.530288
 C        -1.994682         0.958905         0.448432
 C        -1.600812         1.716587         1.684466
 C        -1.356845         3.228907         1.466815
 C        -0.585105         3.804144         2.795867
 C         0.759016         3.207208         2.651103
 O         0.981083         2.956118         1.241446
 C        -0.164465         2.783773         0.468768
 H         1.279313         0.661564         0.902992
 H        -2.714500         1.454274        -0.322225
 H        -2.231717        -0.129491         0.643987
 H        -1.607562         1.171687         2.678218
 H        -2.189030         3.859374         1.212869
 H        -0.422519         4.944457         2.775307
 H        -1.133951         3.567834         3.790211
 H         1.464490         3.943467         2.899262
 H         0.933626         2.198709         3.110528
 H        -0.006599         3.251414        -0.510139
