19
Iteration:  3897
 O         0.320119         0.139637         0.410406
 C        -0.517260         1.243285         0.596324
 C        -2.058121         1.099121         0.321776
 C        -1.772030         1.625770         1.652136
 C        -1.338727         3.114184         1.544588
 C        -0.582688         3.603901         2.930494
 C         0.874251         3.804144         2.510645
 O         1.060659         2.859474         1.363976
 C        -0.139507         2.729160         0.602442
 H         1.020239         0.263033         1.103154
 H        -2.493510         1.823823        -0.495739
 H        -2.256599        -0.008785         0.379474
 H        -2.132855         1.058845         2.462524
 H        -2.138990         3.612474         1.028296
 H        -1.096503         4.482430         3.390405
 H        -0.681048         2.737995         3.534723
 H         0.819299         4.829923         2.095043
 H         1.544861         3.513598         3.286467
 H        -0.115185         3.159291        -0.444493
