19
Iteration:  2132charge 0 multiplicity 1
 O         0.237994         0.140537         0.445900
 C        -0.583727         1.249695         0.724828
 C        -1.976670         0.953286         0.362551
 C        -1.687920         1.617733         1.759546
 C        -1.357129         3.151325         1.529209
 C        -0.660581         3.720294         2.667386
 C         0.855253         3.247983         2.644742
 O         1.085412         3.349956         1.250204
 C        -0.127431         2.725450         0.535819
 H         1.112305         0.420445         0.915412
 H        -2.447525         1.469872        -0.469055
 H        -2.077026        -0.017226         0.254554
 H        -1.752630         1.078361         2.693756
 H        -2.213244         3.832832         1.280151
 H        -0.620705         4.865153         2.705963
 H        -1.215289         3.460599         3.601344
 H         1.600848         3.820014         3.166496
 H         0.941698         2.227750         3.077113
 H         0.101065         3.114062        -0.425966
