19
Iteration:  4407
 O         0.399803         0.215289         0.500317
 C        -0.587705         1.216700         0.664438
 C        -2.108060         1.140667         0.150492
 C        -1.727746         1.581144         1.605218
 C        -1.264860         3.050556         1.678090
 C        -0.654994         3.591816         2.917064
 C         0.867750         3.753319         2.435974
 O         1.073640         2.866798         1.372766
 C        -0.178355         2.685612         0.660189
 H         1.087570         0.757970         0.098661
 H        -2.617640         1.799299        -0.467001
 H        -2.680093         0.276629         0.230914
 H        -2.000143         0.954220         2.436763
 H        -2.012668         3.655537         1.200382
 H        -1.090683         4.588032         3.116413
 H        -0.832686         3.098181         3.854312
 H         0.973395         4.742840         2.025522
 H         1.720836         3.487270         3.125409
 H        -0.120502         3.175789        -0.288906
