19
Iteration:   408
 O         0.296387         0.355042         0.701457
 C        -0.656192         1.295924         0.629914
 C        -2.069365         1.067264         0.248572
 C        -1.717637         1.589251         1.632992
 C        -1.356206         3.077988         1.571734
 C        -0.596607         3.638535         2.763461
 C         0.940296         3.432626         2.529656
 O         1.097860         2.967530         1.172167
 C        -0.142857         2.728307         0.587369
 H         1.204450         0.767743         1.097415
 H        -2.730476         1.614191        -0.340494
 H        -2.284151         0.012450         0.397921
 H        -1.930359         1.137318         2.573450
 H        -2.219356         3.572918         1.277784
 H        -0.770715         4.693241         2.899732
 H        -0.928620         3.041933         3.608072
 H         1.720783         4.300404         2.692778
 H         1.006503         2.628515         3.228902
 H        -0.043725         3.212838        -0.350880
