19
Iteration:   994charge 0 multiplicity 1
 O         0.337425         0.245658         0.620810
 C        -0.572852         1.213496         0.705393
 C        -1.917004         1.018828         0.253293
 C        -1.781853         1.671165         1.598841
 C        -1.383454         3.192600         1.659598
 C        -0.645432         3.723992         2.860442
 C         0.902260         3.363867         2.510825
 O         1.023911         2.979313         1.178332
 C        -0.173445         2.726569         0.567645
 H         1.189056         0.767645         0.623728
 H        -2.301648         1.671180        -0.599571
 H        -2.181417         0.006652         0.257441
 H        -2.175264         1.112061         2.392998
 H        -2.123447         3.837866         1.126929
 H        -0.634408         4.875596         2.885632
 H        -0.959391         3.294887         3.769295
 H         1.615948         4.172064         2.655510
 H         1.050174         2.585935         3.302345
 H        -0.252089         3.246225        -0.439268
