19
Iteration:  3836charge 0 multiplicity 1
 O         0.356532         0.184013         0.429771
 C        -0.676114         1.216822         0.650795
 C        -2.030703         1.151136         0.170097
 C        -1.714698         1.576404         1.619683
 C        -1.267667         2.980381         1.689302
 C        -0.591255         3.654975         2.876977
 C         0.841692         3.911089         2.409493
 O         1.029018         2.787372         1.409864
 C        -0.169787         2.672930         0.698017
 H         1.125860         0.489735         0.948195
 H        -2.106479         1.820799        -0.645756
 H        -2.594763         0.276002        -0.002853
 H        -2.105268         0.940401         2.442987
 H        -2.072522         3.692555         1.315626
 H        -1.127818         4.561561         3.186035
 H        -0.596508         2.819398         3.717596
 H         1.188815         4.862316         1.868146
 H         1.660507         3.825444         3.220792
 H        -0.090726         3.289786        -0.221902
