19
Iteration:  1717charge 0 multiplicity 1
 O         0.400263         0.250864         0.680294
 C        -0.619114         1.297384         0.514159
 C        -2.112148         1.006001         0.336180
 C        -1.672353         1.594139         1.630293
 C        -1.332480         3.071029         1.612871
 C        -0.624531         3.788290         2.744174
 C         0.869168         3.364600         2.559480
 O         1.046237         3.026772         1.203019
 C        -0.192299         2.755410         0.592870
 H         1.099341         0.741933         1.250134
 H        -2.632773         1.720979        -0.424826
 H        -2.322714        -0.032376         0.309482
 H        -1.885369         0.959133         2.400336
 H        -2.072514         3.629026         1.120726
 H        -0.603223         4.870534         2.671299
 H        -0.980603         3.509428         3.746550
 H         1.637384         4.097364         2.868724
 H         1.171802         2.378961         3.053682
 H        -0.201319         3.260307        -0.378936
