19
Iteration:  1774charge 0 multiplicity 1
 O         0.490986         0.312269         0.460226
 C        -0.572079         1.265064         0.702928
 C        -2.013484         1.047928         0.462377
 C        -1.638902         1.685784         1.806251
 C        -1.335607         3.145413         1.481611
 C        -0.614433         3.804791         2.647382
 C         0.722735         3.130814         2.667349
 O         1.007074         3.024858         1.211924
 C        -0.214834         2.737490         0.493941
 H         1.266483         0.744473         0.825503
 H        -2.607758         1.788072        -0.154403
 H        -2.458280         0.049755         0.522938
 H        -1.970711         1.236943         2.769411
 H        -2.175503         3.628919         0.995281
 H        -0.471268         4.904089         2.435318
 H        -1.273571         3.728230         3.589266
 H         1.468590         3.683411         3.199853
 H         0.674001         2.081018         3.067265
 H        -0.264803         3.055897        -0.520358
