19
Iteration:   348charge 0 multiplicity 1
 O         0.213309         0.181289         0.564283
 C        -0.612068         1.266278         0.669189
 C        -2.036347         1.071399         0.155966
 C        -1.866579         1.581529         1.610917
 C        -1.313431         3.052576         1.630460
 C        -0.502824         3.521797         2.900127
 C         0.940026         3.851608         2.364799
 O         1.096276         2.865197         1.396844
 C        -0.114305         2.725048         0.621933
 H         0.899301         0.395828         1.119335
 H        -2.491045         1.844950        -0.582347
 H        -2.251898         0.051695        -0.108904
 H        -2.111005         1.039221         2.549943
 H        -2.114321         3.841537         1.218107
 H        -0.896086         4.499468         3.264531
 H        -0.499849         2.858217         3.804065
 H         0.949013         4.871871         1.884571
 H         1.784347         3.901052         3.107895
 H        -0.008938         3.196225        -0.438661
