19
Iteration:   292
 O         0.150488        -0.007525         0.394743
 C        -0.545971         1.181784         0.711730
 C        -1.971539         1.237040         0.198726
 C        -1.775089         1.604050         1.618680
 C        -1.284723         3.055226         1.713672
 C        -0.578388         3.637260         2.945464
 C         0.817069         4.017568         2.302117
 O         1.126002         2.905231         1.422184
 C        -0.092685         2.586362         0.674084
 H         0.807075        -0.147034         1.088477
 H        -2.306685         1.952816        -0.638276
 H        -2.253549         0.168751         0.005145
 H        -2.363057         1.055782         2.295575
 H        -2.236532         3.708616         1.417382
 H        -1.026829         4.442063         3.569021
 H        -0.214521         2.738557         3.513409
 H         0.868417         4.959100         1.650776
 H         1.636385         4.069372         3.121866
 H        -0.010067         2.945901        -0.431147
