19
Iteration:  3242charge 0 multiplicity 1
 O         0.338447         0.266026         0.494631
 C        -0.665321         1.219697         0.579138
 C        -2.046060         1.005747         0.208949
 C        -1.821877         1.647338         1.583064
 C        -1.367189         3.077327         1.557545
 C        -0.622038         3.595597         2.948814
 C         0.909309         3.807526         2.391545
 O         1.130870         2.793576         1.447016
 C        -0.109243         2.705671         0.691523
 H         1.140037         0.812457         0.723370
 H        -2.654344         1.629450        -0.551361
 H        -2.305169         0.004877         0.405149
 H        -1.976223         1.222718         2.566183
 H        -2.110389         3.713114         1.102481
 H        -0.986025         4.594976         3.296951
 H        -0.467946         2.857360         3.674443
 H         1.039665         4.868086         1.979868
 H         1.675177         3.522347         3.171493
 H        -0.046250         3.201510        -0.326479
