19
Iteration:  4567
 O         0.218349         0.127893         0.655806
 C        -0.562029         1.333797         0.653759
 C        -2.003227         1.162505         0.074055
 C        -1.667685         1.506596         1.682810
 C        -1.304326         3.096675         1.569213
 C        -0.557818         3.382421         2.953836
 C         0.799672         3.761438         2.410798
 O         1.121346         3.018184         1.313999
 C        -0.172495         2.788614         0.634090
 H         1.013091         0.136697         0.139726
 H        -2.727854         1.940194        -0.373208
 H        -2.209156         0.075944        -0.128040
 H        -2.145614         0.971266         2.415106
 H        -2.112592         3.724585         1.202475
 H        -0.831789         4.211815         3.535038
 H        -0.652061         2.599819         3.749204
 H         0.659804         4.872363         2.111844
 H         1.606758         3.667837         3.070605
 H        -0.267297         3.173763        -0.341884
