19
Iteration:  2107
 O         0.289988         0.033150         0.484942
 C        -0.456196         1.254391         0.666925
 C        -1.944326         1.162713         0.347866
 C        -1.561437         1.581017         1.734458
 C        -1.352574         3.063218         1.622141
 C        -0.671284         3.838290         2.728187
 C         0.783195         3.284739         2.624340
 O         0.955813         3.205762         1.159768
 C        -0.160392         2.795058         0.595317
 H         1.189196         0.206317         0.927970
 H        -2.383711         1.748372        -0.388709
 H        -2.246272         0.048232         0.168364
 H        -2.215854         0.953082         2.452936
 H        -2.186857         3.629777         1.204404
 H        -0.663254         4.984754         2.573416
 H        -1.078105         3.758419         3.740356
 H         1.772385         3.587181         3.085316
 H         0.614019         2.245860         3.007417
 H        -0.227765         3.365695        -0.289761
