19
Iteration:  3322charge 0 multiplicity 1
 O         0.227605         0.111473         0.519428
 C        -0.601688         1.267191         0.614187
 C        -2.026050         1.114875         0.192445
 C        -1.717803         1.518020         1.615450
 C        -1.317926         3.116783         1.634374
 C        -0.602336         3.552254         2.879138
 C         0.927584         3.861927         2.481951
 O         1.064431         2.945450         1.340310
 C        -0.125208         2.704986         0.645944
 H         1.084274         0.114355         1.023745
 H        -2.479253         1.674044        -0.621846
 H        -2.188956        -0.027573         0.008350
 H        -2.242790         1.062992         2.459808
 H        -1.935509         3.818349         1.116472
 H        -1.078076         4.385417         3.337396
 H        -0.608738         2.916050         3.722234
 H         1.076189         4.904090         2.089886
 H         1.589222         3.551717         3.394821
 H        -0.179976         3.150859        -0.414874
