19
Iteration:  3902charge 0 multiplicity 1
 O         0.350489         0.158759         0.419994
 C        -0.582779         1.199067         0.575328
 C        -2.060902         1.077458         0.312566
 C        -1.809975         1.625539         1.666312
 C        -1.309828         3.154916         1.596933
 C        -0.659011         3.601582         2.934833
 C         0.869880         3.820248         2.507191
 O         1.122283         2.853145         1.333261
 C        -0.154165         2.719310         0.623236
 H         1.143929         0.229078         0.976246
 H        -2.283802         1.732400        -0.480397
 H        -2.363640         0.062743         0.182865
 H        -2.177352         1.016782         2.571373
 H        -2.032482         3.762066         0.915376
 H        -1.152442         4.499745         3.275996
 H        -0.643882         2.653517         3.606687
 H         0.957712         4.828126         2.100301
 H         1.746349         3.512151         3.163491
 H        -0.127061         3.228507        -0.327808
