19
Iteration:  1764charge 0 multiplicity 1
 O         0.468986         0.343335         0.483902
 C        -0.541282         1.294448         0.710033
 C        -1.985269         1.082672         0.392871
 C        -1.679585         1.633473         1.836835
 C        -1.363559         3.135309         1.496389
 C        -0.656622         3.833118         2.653636
 C         0.703460         3.167186         2.591059
 O         1.058057         2.918891         1.176858
 C        -0.237580         2.742796         0.579263
 H         1.298545         0.848327         0.738432
 H        -2.724373         1.482209        -0.344594
 H        -2.144418        -0.022432         0.568310
 H        -2.077596         1.265058         2.866211
 H        -2.109673         3.865263         1.123889
 H        -0.422696         4.965082         2.542117
 H        -1.160194         3.642095         3.720180
 H         1.560177         3.710670         2.870472
 H         0.715895         2.197724         3.145087
 H        -0.090434         3.281101        -0.298324
