19
Iteration:   334
 O         0.179945         0.161719         0.603980
 C        -0.650719         1.317638         0.613103
 C        -2.061982         1.256212         0.143300
 C        -1.766335         1.497039         1.580216
 C        -1.344204         2.986217         1.735628
 C        -0.525009         3.575112         2.905891
 C         0.774606         3.932561         2.262154
 O         1.197945         2.805340         1.383005
 C        -0.002849         2.634080         0.665373
 H         1.020229         0.338309         1.233666
 H        -2.686681         1.933044        -0.508273
 H        -2.299686         0.169935         0.056722
 H        -2.013690         0.795009         2.312644
 H        -2.002654         3.810790         1.323378
 H        -1.070938         4.459476         3.397533
 H        -0.330689         2.785480         3.698925
 H         0.695854         4.808556         1.718222
 H         1.592702         3.942483         3.045319
 H         0.116451         3.185063        -0.301358
