19
Iteration:  4068charge 0 multiplicity 1
 O         0.285913         0.185555         0.551121
 C        -0.622100         1.306091         0.658229
 C        -1.997887         1.154684         0.169050
 C        -1.754157         1.501682         1.577903
 C        -1.295774         3.037280         1.668861
 C        -0.557072         3.533261         2.884663
 C         0.843063         3.865285         2.354426
 O         1.066409         2.873259         1.362827
 C        -0.159058         2.733280         0.668358
 H         0.471185        -0.078819         1.473429
 H        -2.451518         1.819952        -0.483090
 H        -2.106669         0.163720        -0.204185
 H        -1.993749         0.756868         2.276204
 H        -2.047448         3.809786         1.373027
 H        -1.055563         4.433191         3.351666
 H        -0.291037         2.666164         3.559128
 H         0.911776         4.935258         1.967191
 H         1.657016         3.808991         3.190328
 H        -0.066517         3.258477        -0.271105
