19
Iteration:  3414
 O         0.266821         0.197002         0.556574
 C        -0.607914         1.259673         0.612345
 C        -1.947855         1.104955         0.188574
 C        -1.727589         1.588594         1.615441
 C        -1.353749         3.055350         1.652684
 C        -0.547426         3.583005         2.973932
 C         0.845460         3.804973         2.405532
 O         1.030231         2.865085         1.314967
 C        -0.139894         2.703135         0.567266
 H         0.833833         0.190202         1.339290
 H        -2.152325         1.783581        -0.642897
 H        -2.391343         0.136504         0.002961
 H        -2.149553         0.996193         2.419843
 H        -1.909606         4.008506         1.358922
 H        -0.875259         4.491879         3.537700
 H        -0.558484         2.768659         3.766715
 H         0.877546         4.901198         2.079144
 H         1.565031         3.453418         3.113690
 H        -0.097874         3.171356        -0.478164
