19
Iteration:   197charge 0 multiplicity 1
 O         0.371452         0.385896         0.540617
 C        -0.712445         1.217512         0.626082
 C        -2.143612         0.940554         0.227310
 C        -1.786194         1.588767         1.608529
 C        -1.317108         3.110278         1.607948
 C        -0.506699         3.749264         2.715243
 C         0.975382         3.612514         2.547978
 O         1.134264         2.769216         1.360652
 C        -0.287495         2.716399         0.651524
 H         1.196360         1.018812         0.848627
 H        -2.556661         1.431370        -0.685896
 H        -2.555028        -0.079555         0.423129
 H        -2.096772         1.081137         2.514293
 H        -1.891563         3.861371         1.142671
 H        -0.872145         4.784686         2.918501
 H        -0.798937         3.236473         3.661623
 H         1.445164         4.528600         2.362024
 H         1.578171         3.206371         3.413261
 H        -0.053494         3.314580        -0.201609
