19
Iteration:  1838charge 0 multiplicity 1
 O         0.372542         0.227203         0.542507
 C        -0.567750         1.217311         0.716424
 C        -1.992918         1.077046         0.303087
 C        -1.665326         1.641462         1.665045
 C        -1.357034         3.133839         1.598377
 C        -0.633581         3.769393         2.751595
 C         0.833925         3.322459         2.594963
 O         1.020497         3.079638         1.192860
 C        -0.194610         2.695023         0.538305
 H         1.040124         0.576880         1.088661
 H        -2.715980         1.731512        -0.273321
 H        -2.338538         0.010973         0.259227
 H        -2.056043         0.997529         2.493637
 H        -2.162596         3.698616         1.187325
 H        -0.737219         4.802777         2.704782
 H        -0.861086         3.419006         3.735389
 H         1.421422         4.200455         2.882649
 H         1.180243         2.501298         3.290754
 H         0.019665         2.974786        -0.521860
