19
Iteration:  2574
 O         0.326437         0.206044         0.532498
 C        -0.549828         1.286605         0.696848
 C        -1.982165         1.086456         0.326712
 C        -1.691795         1.596201         1.743654
 C        -1.374409         3.076087         1.581681
 C        -0.594095         3.667070         2.682878
 C         0.834183         3.375010         2.656346
 O         1.006619         3.142126         1.153149
 C        -0.132915         2.733224         0.540593
 H         1.164225         0.389798         1.009291
 H        -2.457973         1.769950        -0.366741
 H        -2.448647         0.137447         0.233026
 H        -2.015661         1.138563         2.738655
 H        -2.200962         3.666267         1.124955
 H        -0.744919         4.762126         2.928430
 H        -1.045593         3.207110         3.672299
 H         1.602751         4.168318         2.907312
 H         0.976224         2.398027         3.129582
 H        -0.115313         3.047767        -0.466217
