19
Iteration:  3215
 O         0.279434         0.203647         0.538651
 C        -0.576080         1.279549         0.589815
 C        -2.003425         1.155151         0.229544
 C        -1.646040         1.579160         1.623411
 C        -1.301872         3.053446         1.593602
 C        -0.629275         3.569031         2.928385
 C         0.810486         3.814653         2.376062
 O         1.016316         2.743443         1.403261
 C        -0.103268         2.770615         0.584396
 H         0.837422         0.495298         1.310353
 H        -2.536519         1.869439        -0.312686
 H        -2.167804         0.034818         0.019554
 H        -2.053261         1.169242         2.557086
 H        -2.232576         3.632568         1.307319
 H        -1.071327         4.526223         3.244411
 H        -0.402116         2.716378         3.679301
 H         0.898096         4.872329         1.948634
 H         1.646969         3.742389         3.087008
 H        -0.107711         3.215365        -0.381706
