19
Iteration:  1621
 O         0.349295         0.287070         0.721889
 C        -0.554206         1.301754         0.626142
 C        -1.965231         1.128730         0.325193
 C        -1.594601         1.563790         1.750414
 C        -1.376573         3.122734         1.564425
 C        -0.598250         3.648181         2.743432
 C         0.800737         3.281360         2.558759
 O         1.001518         3.013955         1.128217
 C        -0.240406         2.823267         0.457860
 H         1.002365         0.425685         1.379083
 H        -2.459563         1.756152        -0.429137
 H        -2.052478         0.104198         0.183938
 H        -1.843564         1.030536         2.633097
 H        -2.291999         3.764850         1.296021
 H        -0.678179         4.754361         2.520059
 H        -1.124733         3.445917         3.782265
 H         1.498647         4.016177         2.889689
 H         1.000277         2.303232         2.979122
 H        -0.171587         3.246778        -0.521206
