19
Iteration:  3439
 O         0.335234         0.132793         0.494744
 C        -0.580295         1.248201         0.706349
 C        -2.064780         1.165544         0.241461
 C        -1.832292         1.600340         1.619715
 C        -1.357798         2.991939         1.556479
 C        -0.604061         3.552633         2.807008
 C         0.904792         3.772152         2.479995
 O         1.128144         2.979920         1.309875
 C        -0.122757         2.698525         0.693392
 H         1.205753         0.334261         0.947551
 H        -2.542679         1.753244        -0.494795
 H        -2.444062         0.098358         0.164913
 H        -2.375260         1.339110         2.508613
 H        -1.890236         3.902217         1.149843
 H        -0.954520         4.376422         3.536364
 H        -0.653267         2.680563         3.517843
 H         0.927295         4.832355         2.178657
 H         1.542033         3.501775         3.280746
 H        -0.189536         3.117890        -0.286326
