19
Iteration:  1206charge 0 multiplicity 1
 O         0.382805         0.051655         0.506284
 C        -0.485793         1.135096         0.704735
 C        -1.914380         1.133360         0.358006
 C        -1.712019         1.686937         1.745465
 C        -1.283715         3.137461         1.557998
 C        -0.638754         3.786718         2.808845
 C         0.734709         3.279350         2.603984
 O         0.989781         3.235780         1.112614
 C        -0.188895         2.755717         0.538440
 H         0.982507         0.146128         1.264549
 H        -2.386877         1.883725        -0.495343
 H        -2.574118         0.292541         0.517625
 H        -2.134374         1.373679         2.653858
 H        -2.068096         3.664093         1.064781
 H        -0.848904         4.834604         2.805733
 H        -1.149138         3.260780         3.652337
 H         1.625314         3.749879         2.997862
 H         0.706328         2.193205         2.966308
 H        -0.091906         3.130843        -0.515283
