19
Iteration:  1582charge 0 multiplicity 1
 O         0.494605         0.325906         0.585700
 C        -0.634740         1.276052         0.699912
 C        -2.029773         0.918695         0.330908
 C        -1.819274         1.690626         1.707015
 C        -1.325504         3.133887         1.522256
 C        -0.551339         3.748718         2.735237
 C         0.818586         3.199138         2.615531
 O         1.010235         3.067953         1.204919
 C        -0.212276         2.724853         0.549177
 H         1.253847         1.047828         0.406724
 H        -2.675857         1.431327        -0.460211
 H        -2.128364        -0.214145         0.363512
 H        -2.440363         1.379140         2.538711
 H        -1.981324         3.933002         1.257881
 H        -0.423256         4.778941         2.477439
 H        -0.841677         3.714032         3.716870
 H         1.607694         3.967726         2.954446
 H         0.963619         2.353842         3.357141
 H        -0.209519         3.101837        -0.549824
