19
Iteration:  4959charge 0 multiplicity 1
 O         0.333646         0.224231         0.451546
 C        -0.653703         1.220581         0.609964
 C        -2.031823         1.151695         0.128500
 C        -1.759699         1.524454         1.618905
 C        -1.236188         2.948857         1.742248
 C        -0.568119         3.563872         2.950721
 C         0.769491         3.864906         2.362142
 O         1.141274         2.880434         1.353251
 C        -0.192799         2.718165         0.723519
 H         1.016059         0.394973         1.118427
 H        -2.566317         1.941389        -0.484970
 H        -2.383278         0.145669        -0.184989
 H        -2.356019         0.943368         2.412058
 H        -2.001697         3.761055         1.417592
 H        -1.094895         4.464140         3.342807
 H        -0.414387         2.771681         3.719884
 H         0.779256         4.796917         1.796233
 H         1.740455         3.881211         3.130713
 H        -0.090370         3.402098        -0.143712
