19
Iteration:  1115charge 0 multiplicity 1
 O         0.467318         0.376057         0.522909
 C        -0.559892         1.303947         0.689307
 C        -1.988601         1.092959         0.409796
 C        -1.719314         1.687623         1.742936
 C        -1.394123         3.100898         1.501526
 C        -0.659157         3.811280         2.649293
 C         0.800973         3.148281         2.615795
 O         1.014360         2.890367         1.216892
 C        -0.198131         2.728621         0.618438
 H         1.180579         0.996295         0.713689
 H        -2.436738         1.597269        -0.448440
 H        -2.167220        -0.000236         0.418262
 H        -2.094190         1.149235         2.623614
 H        -2.253630         3.762658         1.159595
 H        -0.565169         4.887146         2.280415
 H        -0.976136         3.719515         3.661538
 H         1.420379         3.999900         2.943163
 H         1.019414         2.252156         3.239101
 H        -0.064681         2.987987        -0.520641
