19
Iteration:  3266charge 0 multiplicity 1
 O         0.338740         0.239182         0.458572
 C        -0.587715         1.220786         0.689338
 C        -1.949664         1.116900         0.200557
 C        -1.783944         1.607262         1.709377
 C        -1.302582         3.114249         1.555259
 C        -0.579311         3.555352         2.851441
 C         0.865807         3.748732         2.422121
 O         1.028530         2.828660         1.397260
 C        -0.217328         2.724962         0.620027
 H         1.042781         0.365045         1.146820
 H        -2.366851         1.755190        -0.614819
 H        -2.447814         0.118513         0.405398
 H        -2.107048         1.036022         2.560189
 H        -1.969237         3.770174         1.032864
 H        -0.910588         4.538047         3.074353
 H        -0.582557         2.827609         3.603278
 H         1.022424         4.814483         2.162375
 H         1.424968         3.470002         3.398624
 H        -0.175820         3.251403        -0.407972
