19
Iteration:  1296
 O         0.497033         0.437326         0.575635
 C        -0.601133         1.263673         0.747644
 C        -1.960262         1.012400         0.374192
 C        -1.830481         1.696066         1.733798
 C        -1.364916         3.191445         1.453489
 C        -0.667828         3.692182         2.743971
 C         0.777747         3.161134         2.523114
 O         1.107770         2.960368         1.150607
 C        -0.208531         2.720415         0.590688
 H         1.201715         0.926393         0.926083
 H        -2.496733         1.647620        -0.390458
 H        -2.164549        -0.122898         0.510454
 H        -2.304382         1.419432         2.735675
 H        -1.917434         3.973054         1.036978
 H        -0.548362         4.733398         2.949927
 H        -1.144038         3.214884         3.596440
 H         1.484332         3.916455         2.931217
 H         0.880167         2.230611         3.138748
 H        -0.248149         2.953351        -0.432265
