19
Iteration:  3925
 O         0.315057         0.260137         0.498067
 C        -0.631616         1.237340         0.718412
 C        -2.041025         1.136327         0.171015
 C        -1.782841         1.589218         1.596608
 C        -1.305606         3.018127         1.644319
 C        -0.525702         3.579084         2.889095
 C         0.833777         3.772305         2.423649
 O         1.085386         2.891313         1.356153
 C        -0.137156         2.655760         0.656648
 H         1.224332         0.581377         0.725818
 H        -2.545585         1.713307        -0.531166
 H        -2.294323         0.081105         0.294435
 H        -2.369174         1.095053         2.415249
 H        -2.176237         3.598810         1.128094
 H        -0.934668         4.573061         3.064581
 H        -0.549510         2.832540         3.748545
 H         0.937044         4.806379         2.042655
 H         1.621158         3.539654         3.255365
 H        -0.087152         2.990660        -0.372047
