19
Iteration:  3134
 O         0.228846         0.098324         0.563761
 C        -0.527352         1.239270         0.620943
 C        -2.017161         1.194595         0.244057
 C        -1.737880         1.568920         1.637417
 C        -1.313562         3.064286         1.593030
 C        -0.590317         3.438270         2.843991
 C         0.860647         3.941013         2.375912
 O         1.056391         2.945020         1.436368
 C        -0.115777         2.707573         0.578921
 H         1.026142         0.259951         1.167355
 H        -2.371733         1.956954        -0.563361
 H        -2.500614         0.290921         0.008103
 H        -2.246775         0.996540         2.472824
 H        -2.087981         3.775440         1.262948
 H        -1.144025         3.859322         3.657655
 H        -0.341813         2.529517         3.282631
 H         0.785202         4.953283         1.937378
 H         1.729180         3.769911         3.109950
 H         0.034276         3.160827        -0.431559
