19
Iteration:   339charge 0 multiplicity 1
 O         0.202849         0.163603         0.593836
 C        -0.640964         1.337511         0.645227
 C        -2.059805         1.190659         0.140013
 C        -1.825821         1.521140         1.578928
 C        -1.370285         2.996713         1.706621
 C        -0.513322         3.546690         2.918649
 C         0.830741         3.901878         2.309899
 O         1.158728         2.829647         1.384941
 C        -0.004910         2.661160         0.645565
 H         0.882861         0.367533         1.142886
 H        -2.680857         1.845193        -0.480064
 H        -2.248281         0.147975        -0.015464
 H        -1.972838         0.786812         2.446248
 H        -1.932329         3.857919         1.226258
 H        -0.878107         4.496985         3.252398
 H        -0.311654         2.864727         3.726497
 H         0.818581         4.919083         1.680392
 H         1.618254         3.918460         3.044930
 H         0.078022         3.121399        -0.384566
