19
Iteration:   844charge 0 multiplicity 1
 O         0.324650         0.362262         0.557667
 C        -0.610446         1.304064         0.603031
 C        -1.933024         0.923182         0.367241
 C        -1.743733         1.739512         1.668084
 C        -1.348920         3.199075         1.492369
 C        -0.613182         3.772414         2.723322
 C         0.879290         3.315536         2.578460
 O         1.035810         2.794053         1.301523
 C        -0.198387         2.772125         0.566700
 H         1.071363         0.588664         1.134626
 H        -2.626780         1.289576        -0.482718
 H        -2.018959        -0.177929         0.441300
 H        -1.844421         1.089411         2.484055
 H        -2.074267         3.932077         1.133903
 H        -0.726992         4.925049         2.789499
 H        -0.999414         3.428304         3.715404
 H         1.581252         4.210070         2.688479
 H         1.188007         2.521179         3.271236
 H        -0.348605         3.478508        -0.285099
