19
Iteration:  4811
 O         0.313193         0.282826         0.413958
 C        -0.627650         1.322625         0.636524
 C        -2.086798         1.055617         0.262007
 C        -1.767686         1.537758         1.674428
 C        -1.317237         3.033825         1.601397
 C        -0.571583         3.544012         2.880692
 C         0.849304         3.803410         2.522103
 O         1.095849         2.835798         1.330114
 C        -0.109334         2.740778         0.624309
 H         0.996093         0.557991         1.078858
 H        -2.467528         1.672716        -0.505697
 H        -2.117806        -0.001297         0.070038
 H        -2.182371         0.881404         2.543524
 H        -2.000736         3.762698         1.231979
 H        -1.030342         4.414561         3.292155
 H        -0.561843         2.736339         3.592841
 H         1.099330         4.714251         2.003859
 H         1.518058         3.689820         3.366930
 H        -0.077116         3.310334        -0.366573
