19
Iteration:  4904charge 0 multiplicity 1
 O         0.307409         0.207423         0.515503
 C        -0.554534         1.226644         0.645403
 C        -2.010545         1.097135         0.247553
 C        -1.794013         1.695024         1.592125
 C        -1.308091         3.091649         1.627058
 C        -0.572298         3.396088         2.967309
 C         0.841590         3.714276         2.505094
 O         1.066151         3.012883         1.228913
 C        -0.154823         2.709467         0.595920
 H         1.117315         0.508994         0.993680
 H        -2.523097         1.577378        -0.660062
 H        -2.361990         0.090805         0.359482
 H        -2.145409         1.077424         2.435326
 H        -2.113773         3.847887         1.265712
 H        -1.072746         4.318976         3.379828
 H        -0.639297         2.514730         3.640860
 H         0.784260         4.743834         2.318732
 H         1.813052         3.566854         3.206359
 H        -0.052017         3.161756        -0.387238
