19
Iteration:    42
 O         0.493003         0.455426         0.743442
 C        -0.655944         1.288861         0.519193
 C        -2.108449         0.983223         0.360341
 C        -1.808995         1.768453         1.586602
 C        -1.278489         3.119266         1.560577
 C        -0.538124         3.658137         2.754625
 C         0.889072         3.195141         2.589447
 O         0.988166         2.894865         1.168186
 C        -0.243788         2.740972         0.547729
 H         1.177052         1.250973         1.081251
 H        -2.744571         1.380792        -0.573951
 H        -2.250351        -0.068479         0.620720
 H        -2.203975         1.316102         2.528908
 H        -1.963081         3.885458         1.284001
 H        -0.606872         4.803025         2.693905
 H        -0.928541         3.233163         3.737400
 H         1.740941         3.857547         2.745718
 H         1.333114         2.367725         3.231659
 H        -0.167628         3.419004        -0.329760
