19
Iteration:   269charge 0 multiplicity 1
 O         0.116860         0.076251         0.428554
 C        -0.592024         1.248286         0.714690
 C        -2.082220         1.088460         0.205359
 C        -1.832914         1.549184         1.662225
 C        -1.183952         3.021060         1.587316
 C        -0.558902         3.581470         2.832328
 C         0.835566         3.909187         2.420425
 O         1.191782         2.981811         1.384824
 C        -0.044226         2.675261         0.744031
 H         0.969342         0.116811         0.947571
 H        -2.579913         1.807285        -0.493164
 H        -2.366297        -0.018580         0.009963
 H        -2.060787         0.950535         2.491673
 H        -2.008124         3.753381         1.141560
 H        -0.975934         4.605243         2.878034
 H        -0.688200         2.918247         3.726360
 H         0.765448         4.979593         1.981742
 H         1.687545         3.874493         3.181423
 H        -0.026950         3.297440        -0.239287
