19
Iteration:   264charge 0 multiplicity 1
 O         0.144118         0.070074         0.459292
 C        -0.608905         1.265003         0.676541
 C        -2.118209         1.113276         0.254246
 C        -1.800285         1.545145         1.612944
 C        -1.199759         3.021006         1.593041
 C        -0.574911         3.606706         2.830707
 C         0.851108         3.888297         2.449062
 O         1.161071         2.984058         1.394210
 C        -0.027609         2.661776         0.658032
 H         1.051804         0.193216         0.901711
 H        -2.671838         1.763638        -0.400846
 H        -2.244619         0.099394         0.037122
 H        -1.982680         0.929489         2.555670
 H        -1.911453         3.670094         1.239885
 H        -1.021156         4.582798         3.096545
 H        -0.703024         3.000295         3.710012
 H         0.942496         4.856278         2.019533
 H         1.561683         3.820584         3.232577
 H        -0.013167         3.093822        -0.309348
