19
Iteration:  4474
 O         0.330217         0.122484         0.504640
 C        -0.637136         1.167732         0.554819
 C        -2.057720         1.201507         0.156980
 C        -1.710521         1.551170         1.612153
 C        -1.283639         3.013016         1.626945
 C        -0.628550         3.550989         2.976415
 C         0.815157         3.937970         2.422272
 O         1.108557         2.946132         1.458304
 C        -0.066929         2.679506         0.623792
 H        -0.026467        -0.430825        -0.261904
 H        -2.547603         1.909900        -0.388562
 H        -2.517502         0.207225         0.145990
 H        -1.508425         0.909752         2.513634
 H        -1.919176         3.791528         1.226006
 H        -1.342168         4.310604         3.471254
 H        -0.577727         2.836489         3.789871
 H         0.784781         4.950046         2.020409
 H         1.581777         3.905369         3.259701
 H         0.041729         3.381478        -0.224836
