19
Iteration:  1890
 O         0.299418         0.250630         0.692874
 C        -0.582488         1.292906         0.676516
 C        -1.943999         1.038595         0.182193
 C        -1.707567         1.578462         1.668203
 C        -1.327122         3.123063         1.577412
 C        -0.582798         3.679658         2.901577
 C         0.918758         3.442932         2.521670
 O         0.962852         2.954753         1.151295
 C        -0.260552         2.823965         0.546191
 H         1.185543         0.632683         1.044991
 H        -2.414258         1.644800        -0.605578
 H        -2.012627        -0.000924         0.092766
 H        -1.881681         0.949951         2.488870
 H        -2.204799         3.646699         1.105914
 H        -0.770130         4.768762         3.038253
 H        -0.845047         3.143122         3.795338
 H         1.531950         4.376249         2.709264
 H         1.356961         2.636102         3.068658
 H        -0.170817         3.260628        -0.497766
