19
Iteration:   207
 O         0.320902         0.393281         0.539867
 C        -0.676214         1.266658         0.581249
 C        -2.036731         0.985085         0.265879
 C        -1.788109         1.593390         1.673255
 C        -1.359214         3.100470         1.601331
 C        -0.585022         3.750478         2.786625
 C         0.986675         3.622636         2.490843
 O         1.097640         2.701428         1.322495
 C        -0.155552         2.730639         0.610481
 H         0.997998         0.836477         1.239774
 H        -2.552980         1.596960        -0.541958
 H        -2.351467        -0.105797         0.346551
 H        -2.159764         1.028229         2.494268
 H        -2.201346         3.751474         1.278536
 H        -0.840055         4.828359         2.925121
 H        -0.791972         3.113953         3.674129
 H         1.417770         4.576970         2.215690
 H         1.422436         3.162859         3.449268
 H        -0.116061         3.193917        -0.365662
