19
Iteration:   277charge 0 multiplicity 1
 O         0.088691         0.083522         0.391429
 C        -0.612202         1.179050         0.726625
 C        -1.980436         1.093086         0.157046
 C        -1.806377         1.561870         1.688640
 C        -1.295930         3.022017         1.623836
 C        -0.560127         3.578721         2.870700
 C         0.858800         3.971304         2.355446
 O         1.235390         2.954713         1.382093
 C        -0.061300         2.691418         0.772101
 H         0.789981        -0.034165         0.990967
 H        -2.277261         1.780006        -0.564469
 H        -2.431201         0.100886         0.122978
 H        -2.334515         1.074052         2.577432
 H        -1.826999         3.749981         1.080507
 H        -1.146958         4.501507         3.104163
 H        -0.622684         2.929772         3.743623
 H         0.737820         4.909803         1.948321
 H         1.627224         4.010260         3.053733
 H        -0.057429         3.284443        -0.132607
