19
Iteration:  2482
 O         0.519327         0.442007         0.639743
 C        -0.670982         1.292880         0.620374
 C        -2.137258         0.996272         0.388802
 C        -1.661268         1.633709         1.712780
 C        -1.386675         3.177125         1.419328
 C        -0.598287         3.663696         2.768031
 C         0.883987         3.171702         2.604929
 O         1.039720         2.976442         1.214864
 C        -0.225589         2.747498         0.526822
 H         1.274079         1.018454         0.712661
 H        -2.863267         1.665945        -0.105434
 H        -2.247081        -0.212352         0.244308
 H        -2.075738         1.240341         2.660248
 H        -2.044986         3.941971         1.062330
 H        -0.645120         4.754300         2.693565
 H        -1.150431         3.439774         3.697382
 H         1.493889         3.957108         2.976081
 H         1.116917         2.208654         3.060577
 H        -0.096409         3.197312        -0.537090
