19
Iteration:  1099
 O         0.387710         0.341849         0.499896
 C        -0.571383         1.292128         0.679140
 C        -2.029227         0.958013         0.423858
 C        -1.797131         1.624940         1.761290
 C        -1.390708         3.145068         1.530051
 C        -0.616567         3.801548         2.658780
 C         0.761474         3.157208         2.638783
 O         1.166265         3.080283         1.247486
 C        -0.122763         2.728427         0.501475
 H         1.333842         0.767572         0.554110
 H        -2.629978         1.508376        -0.309622
 H        -2.293227        -0.111973         0.485356
 H        -2.069632         1.306353         2.778301
 H        -2.099173         3.738700         0.958387
 H        -0.507789         4.822107         2.395448
 H        -1.309722         3.740630         3.573721
 H         1.541616         3.662677         3.226451
 H         0.567286         2.179388         3.094181
 H        -0.045570         3.247844        -0.404641
