19
Iteration:  2864charge 0 multiplicity 1
 O         0.272656         0.140141         0.556742
 C        -0.599848         1.263596         0.732589
 C        -1.967207         1.122292         0.134489
 C        -1.800619         1.647206         1.615483
 C        -1.325498         3.094338         1.687086
 C        -0.616447         3.531034         2.900723
 C         0.872848         3.715874         2.457571
 O         1.092732         2.933481         1.215981
 C        -0.131624         2.717550         0.632518
 H         1.198043         0.442246         0.857108
 H        -2.277591         1.681680        -0.752565
 H        -2.204772         0.006458         0.194696
 H        -2.128908         1.090237         2.619440
 H        -2.041348         3.832165         1.295316
 H        -1.084866         4.456372         3.284230
 H        -0.751250         2.673277         3.704504
 H         0.932910         4.837635         2.292581
 H         1.685542         3.534277         3.193167
 H        -0.204911         3.256921        -0.346788
