19
Iteration:   708
 O         0.395154         0.332126         0.740391
 C        -0.518909         1.312435         0.664665
 C        -1.933483         1.049344         0.340528
 C        -1.760372         1.688723         1.624681
 C        -1.388020         3.208248         1.542182
 C        -0.588645         3.648768         2.766116
 C         0.842493         3.161092         2.573876
 O         1.022260         2.940361         1.111286
 C        -0.253328         2.827709         0.505470
 H         1.272895         0.759632         0.847302
 H        -2.604094         1.643473        -0.487170
 H        -2.274937         0.021786         0.390253
 H        -2.222615         1.259599         2.470454
 H        -2.139323         3.995975         1.510369
 H        -0.612872         4.774882         2.878046
 H        -1.140802         3.330947         3.694345
 H         1.556110         3.860289         2.893179
 H         1.039719         2.201487         3.100472
 H        -0.197280         3.136976        -0.505517
