19
Iteration:  4720charge 0 multiplicity 1
 O         0.283768         0.137015         0.349684
 C        -0.581543         1.203149         0.527825
 C        -2.025574         1.183187         0.188156
 C        -1.612379         1.489715         1.642375
 C        -1.306665         3.061541         1.665892
 C        -0.634044         3.600570         2.962955
 C         0.847224         3.926519         2.397775
 O         1.022092         2.858446         1.480812
 C        -0.155304         2.705340         0.709472
 H         0.692620        -0.149930         1.175954
 H        -2.280254         2.007741        -0.517606
 H        -2.464416         0.157326         0.013556
 H        -2.015265         0.982152         2.481401
 H        -2.002808         3.720502         1.228583
 H        -1.048874         4.510647         3.367814
 H        -0.362390         2.845624         3.753916
 H         0.844488         4.954584         1.973615
 H         1.651327         3.854568         3.041667
 H        -0.139586         3.237709        -0.307672
