19
Iteration:  3546charge 0 multiplicity 1
 O         0.294807         0.168115         0.410108
 C        -0.551458         1.235513         0.709088
 C        -2.050296         1.157896         0.212171
 C        -1.722794         1.583628         1.620276
 C        -1.312141         3.088784         1.534275
 C        -0.586789         3.555671         2.882886
 C         0.820051         3.906331         2.389577
 O         1.015106         2.800427         1.472461
 C        -0.114857         2.658287         0.731738
 H         1.198420         0.517362         0.688830
 H        -2.318901         1.817223        -0.611645
 H        -2.346212         0.091820         0.276560
 H        -2.162233         0.995847         2.409064
 H        -2.035083         3.918387         1.304653
 H        -1.086160         4.456409         3.247915
 H        -0.399412         2.673252         3.492864
 H         1.041674         4.927273         1.825880
 H         1.460690         3.808907         3.236494
 H         0.053509         3.150056        -0.313911
