19
Iteration:   150charge 0 multiplicity 1
 O         0.232482         0.178135         0.542454
 C        -0.583246         1.292419         0.772509
 C        -1.992862         1.143248         0.292528
 C        -1.546617         1.599574         1.752897
 C        -1.343635         3.090838         1.514217
 C        -0.659433         3.641361         2.743537
 C         0.849741         3.443882         2.491667
 O         1.065051         3.014546         1.204192
 C        -0.171306         2.798425         0.562274
 H         0.819529         0.032867         1.383557
 H        -2.567589         1.903543        -0.358801
 H        -2.202386         0.041399         0.076605
 H        -1.740718         1.123178         2.695298
 H        -2.261755         3.724080         1.198318
 H        -0.831426         4.752862         2.824184
 H        -1.070183         3.258189         3.722675
 H         1.499832         4.311860         2.807384
 H         1.277552         2.675535         3.294426
 H        -0.165205         3.076724        -0.520638
