19
Iteration:  1244
 O         0.234401         0.332109         0.719053
 C        -0.622375         1.378297         0.603642
 C        -1.966855         1.002400         0.270438
 C        -1.708713         1.518631         1.682300
 C        -1.315012         2.954858         1.576754
 C        -0.579828         3.756174         2.713620
 C         0.841155         3.244496         2.606556
 O         1.084341         3.151228         1.154649
 C        -0.149186         2.811549         0.531182
 H         1.091047         0.516964         1.283524
 H        -2.440733         1.577323        -0.464990
 H        -2.110213        -0.130283         0.153412
 H        -1.798802         0.890207         2.663586
 H        -2.206083         3.661886         1.401955
 H        -0.602027         4.883952         2.469347
 H        -1.033089         3.671327         3.691365
 H         1.720433         3.799087         3.070577
 H         0.746953         2.226174         3.012982
 H        -0.309511         3.281216        -0.446092
