19
Iteration:  3825
 O         0.312846         0.252739         0.404771
 C        -0.559476         1.137579         0.714502
 C        -1.937195         1.195550         0.129949
 C        -1.802645         1.533662         1.689917
 C        -1.326790         3.054126         1.624622
 C        -0.579916         3.668544         2.889140
 C         0.853714         3.901466         2.411152
 O         1.048362         2.745708         1.406960
 C        -0.198582         2.647325         0.677407
 H         1.113443         0.459213         0.968752
 H        -2.297707         1.965271        -0.523670
 H        -2.350571         0.212149         0.088287
 H        -2.266362         0.991865         2.547163
 H        -2.081655         3.732240         1.097999
 H        -1.026219         4.489577         3.471130
 H        -0.414271         2.831872         3.707555
 H         0.831197         4.865576         1.790209
 H         1.685623         3.717682         3.176948
 H        -0.212851         3.186677        -0.318630
