19
Iteration:  3985charge 0 multiplicity 1
 O         0.278606         0.205662         0.577238
 C        -0.593006         1.265983         0.626027
 C        -2.038041         1.074480         0.125840
 C        -1.838586         1.618683         1.628186
 C        -1.272206         3.026177         1.601477
 C        -0.555636         3.451680         2.921797
 C         0.850401         3.868476         2.403106
 O         1.126266         2.922912         1.344773
 C        -0.155969         2.712072         0.624767
 H         0.724226         0.168343         1.471813
 H        -2.636673         1.913703        -0.417867
 H        -2.335360         0.031535        -0.044059
 H        -2.046084         1.120774         2.583915
 H        -1.968935         3.759453         1.213358
 H        -1.107477         4.137692         3.557720
 H        -0.354548         2.699234         3.642712
 H         0.925701         5.010769         2.015764
 H         1.712489         3.715097         3.039223
 H        -0.004344         3.268228        -0.358722
