19
Iteration:    79
 O         0.252742         0.219672         0.687197
 C        -0.502002         1.312761         0.745814
 C        -1.945980         1.161791         0.286582
 C        -1.689781         1.665365         1.733611
 C        -1.330315         3.083369         1.594872
 C        -0.631620         3.661989         2.725978
 C         0.830235         3.167944         2.495282
 O         1.019373         3.152311         1.083861
 C        -0.155737         2.760715         0.580681
 H         1.261321         0.481064         0.812444
 H        -2.432574         1.704916        -0.451403
 H        -2.067123         0.068078         0.210674
 H        -2.106658         1.310540         2.664479
 H        -2.135893         3.706005         1.192659
 H        -0.743255         4.728762         2.725763
 H        -1.016956         3.311418         3.659030
 H         1.585136         3.802513         3.019687
 H         0.882111         2.193360         2.947463
 H        -0.329017         3.080786        -0.440796
