19
Iteration:  4329charge 0 multiplicity 1
 O         0.218087         0.189312         0.526755
 C        -0.600026         1.226727         0.713882
 C        -2.080254         1.159575         0.184779
 C        -1.732641         1.560752         1.594549
 C        -1.241112         3.023024         1.654663
 C        -0.564578         3.407418         2.860082
 C         0.810249         3.891849         2.424188
 O         1.128909         3.001929         1.330252
 C        -0.133989         2.677834         0.634854
 H         0.941443         0.318099         1.185019
 H        -2.254604         1.868017        -0.656914
 H        -2.390970         0.152983        -0.155059
 H        -2.117135         0.926633         2.457650
 H        -2.040981         3.757568         1.356858
 H        -1.249369         4.194288         3.274945
 H        -0.280140         2.530745         3.531160
 H         1.008967         4.966591         2.219640
 H         1.647327         3.786137         3.220254
 H        -0.160076         3.167604        -0.316025
