19
Iteration:  1753
 O         0.405202         0.396148         0.534708
 C        -0.577279         1.318848         0.659422
 C        -1.966884         0.983025         0.415210
 C        -1.705913         1.644223         1.711282
 C        -1.417597         3.160066         1.616685
 C        -0.636814         3.873055         2.680616
 C         0.806000         3.193970         2.540478
 O         1.076678         2.842611         1.205766
 C        -0.201065         2.760266         0.578668
 H         1.287421         0.919149         0.676257
 H        -2.420404         1.460350        -0.461873
 H        -2.039878        -0.113238         0.367333
 H        -2.039011         1.122021         2.657659
 H        -2.259436         3.699808         1.136599
 H        -0.782387         4.987383         2.491936
 H        -1.017824         3.636774         3.763876
 H         1.526630         3.876951         2.908469
 H         0.784424         2.315564         3.209970
 H        -0.202905         3.173185        -0.395923
