19
Iteration:  4072charge 0 multiplicity 1
 O         0.291588         0.201888         0.553830
 C        -0.621448         1.293774         0.639332
 C        -1.987851         1.170342         0.172600
 C        -1.716473         1.530330         1.571973
 C        -1.263929         3.043518         1.655921
 C        -0.567690         3.523012         2.895791
 C         0.852653         3.839212         2.325352
 O         1.042871         2.876593         1.379401
 C        -0.170041         2.720016         0.694452
 H         0.547685        -0.174894         1.410219
 H        -2.569008         1.843680        -0.569694
 H        -2.137036         0.068655         0.013243
 H        -2.069546         0.752357         2.304576
 H        -1.968224         3.896711         1.394797
 H        -1.132768         4.353643         3.326249
 H        -0.526070         2.699532         3.597739
 H         0.852339         4.851530         2.043376
 H         1.661088         3.876954         3.004573
 H        -0.160183         3.228587        -0.287951
