19
Iteration:  3943
 O         0.287738         0.189998         0.607534
 C        -0.574150         1.274902         0.596130
 C        -1.976611         1.143444         0.157318
 C        -1.763623         1.518208         1.665833
 C        -1.359692         3.056750         1.622211
 C        -0.595380         3.559615         2.900532
 C         0.959690         3.824956         2.377624
 O         1.032255         2.810481         1.340387
 C        -0.197632         2.758617         0.620900
 H         1.065220         0.679695         0.976424
 H        -2.310277         2.082734        -0.436549
 H        -2.303134         0.152428        -0.122324
 H        -2.011593         0.870013         2.549562
 H        -2.050345         3.841628         1.421480
 H        -1.097413         4.390108         3.400974
 H        -0.637050         2.678038         3.589039
 H         1.039182         4.826279         1.961752
 H         1.605922         3.556224         3.150780
 H        -0.183928         3.363669        -0.309940
