19
Iteration:  2537
 O         0.344035         0.237388         0.653639
 C        -0.562609         1.268006         0.641286
 C        -1.943647         1.015445         0.299262
 C        -1.621135         1.616584         1.699674
 C        -1.375896         3.098286         1.589348
 C        -0.515652         3.839334         2.743089
 C         0.751539         3.072148         2.624999
 O         0.959441         3.209085         1.139045
 C        -0.198683         2.818493         0.511403
 H         1.149693         0.617477         0.976470
 H        -2.536970         1.663960        -0.446905
 H        -2.211834        -0.096810         0.424816
 H        -1.731624         0.977543         2.527740
 H        -2.262737         3.694022         1.412948
 H        -0.472309         4.889531         2.493829
 H        -0.979817         3.602836         3.701140
 H         1.595321         3.454839         3.135481
 H         0.580228         2.025230         2.908035
 H        -0.243493         3.396875        -0.496225
