19
Iteration:  4263
 O         0.235037         0.195205         0.690356
 C        -0.573961         1.296792         0.637409
 C        -2.073917         1.242025         0.149400
 C        -1.730303         1.459718         1.521361
 C        -1.351176         2.960477         1.697371
 C        -0.522641         3.454192         2.913548
 C         0.829978         3.944483         2.326990
 O         1.125367         2.944829         1.369763
 C        -0.089484         2.672518         0.679432
 H         0.519836        -0.011574        -0.211662
 H        -2.522891         1.989892        -0.545105
 H        -2.263166         0.238270        -0.251713
 H        -2.177422         0.771634         2.265963
 H        -2.034482         3.763135         1.362264
 H        -1.036728         4.142616         3.644362
 H        -0.515822         2.590612         3.674637
 H         0.907597         5.018194         1.856027
 H         1.677660         3.931288         3.116247
 H        -0.030523         3.058060        -0.331607
