19
Iteration:  2523
 O         0.414921         0.260016         0.624979
 C        -0.488253         1.355348         0.661091
 C        -1.955847         0.984692         0.347001
 C        -1.660427         1.653651         1.676904
 C        -1.363481         3.218321         1.589847
 C        -0.565357         3.774934         2.764143
 C         0.770854         3.066236         2.531021
 O         0.976409         3.078569         1.219296
 C        -0.364972         2.832354         0.485763
 H         1.321527         0.610560         0.949407
 H        -2.415748         1.336144        -0.556453
 H        -2.170183        -0.200079         0.419587
 H        -1.992791         1.199592         2.683907
 H        -2.199579         3.826567         1.166166
 H        -0.323068         4.835725         2.664202
 H        -1.021262         3.694363         3.690335
 H         1.716567         3.494857         3.022837
 H         0.723929         2.048959         3.018918
 H        -0.224222         3.217661        -0.605482
