19
Iteration:  1343
 O         0.275523         0.129696         0.681303
 C        -0.499969         1.274908         0.607192
 C        -1.985475         1.081656         0.327071
 C        -1.495730         1.579585         1.649623
 C        -1.358932         3.134547         1.626640
 C        -0.660533         3.892969         2.725219
 C         0.767208         3.152994         2.643067
 O         0.960282         3.144100         1.129373
 C        -0.188466         2.833718         0.531994
 H         1.207679         0.332115         0.844829
 H        -2.458205         1.747067        -0.379797
 H        -2.124447         0.017357         0.205174
 H        -1.434521         0.900126         2.525354
 H        -2.136813         3.674635         1.042755
 H        -0.545350         5.023673         2.648998
 H        -1.070535         3.652400         3.695520
 H         1.713926         3.543876         3.126583
 H         0.536724         2.120743         3.024258
 H        -0.254371         3.308133        -0.402739
