19
Iteration:  4197
 O         0.240264         0.203798         0.587385
 C        -0.556037         1.280112         0.611041
 C        -2.074295         1.093313         0.247117
 C        -1.700940         1.459718         1.590093
 C        -1.335355         3.088762         1.578724
 C        -0.661065         3.513324         2.887666
 C         0.913534         3.786484         2.472719
 O         1.166627         2.961480         1.297458
 C        -0.132469         2.765187         0.724876
 H         0.421697        -0.274761        -0.256360
 H        -2.275236         1.889006        -0.477545
 H        -2.263901         0.085971        -0.006961
 H        -2.238187         1.064708         2.383825
 H        -2.042145         3.690980         1.065096
 H        -0.944386         4.472109         3.302125
 H        -0.689217         2.922626         3.814398
 H         0.810216         4.832680         2.208894
 H         1.602605         3.555903         3.301381
 H        -0.176755         3.368232        -0.198251
