19
Iteration:  2866
 O         0.281283         0.139845         0.550636
 C        -0.615804         1.272226         0.739408
 C        -1.974819         1.124807         0.136862
 C        -1.786472         1.634236         1.628952
 C        -1.313831         3.113152         1.681506
 C        -0.644471         3.519936         2.909934
 C         0.874803         3.722570         2.459217
 O         1.098100         2.935088         1.209133
 C        -0.127023         2.704786         0.628736
 H         1.205659         0.368791         0.857879
 H        -2.225476         1.771485        -0.786248
 H        -2.232931         0.050047         0.227012
 H        -2.136308         1.037471         2.593481
 H        -2.007968         3.860630         1.295798
 H        -1.071414         4.439632         3.246702
 H        -0.752564         2.736780         3.662710
 H         0.909907         4.767546         2.292039
 H         1.676649         3.576763         3.182651
 H        -0.235771         3.183453        -0.312528
