19
Iteration:   208
 O         0.322535         0.385685         0.541064
 C        -0.673621         1.279758         0.580210
 C        -2.030510         0.992947         0.268407
 C        -1.786053         1.597391         1.677704
 C        -1.363889         3.101926         1.596540
 C        -0.590259         3.745703         2.796762
 C         0.981833         3.624599         2.482489
 O         1.090705         2.697740         1.321518
 C        -0.146726         2.729136         0.602055
 H         1.006622         0.801408         1.264497
 H        -2.564586         1.594111        -0.510750
 H        -2.313455        -0.074372         0.325313
 H        -2.170470         1.015968         2.518361
 H        -2.189924         3.707370         1.292718
 H        -0.844771         4.820342         2.937529
 H        -0.798407         3.141506         3.698010
 H         1.414042         4.543570         2.218413
 H         1.423519         3.159384         3.398359
 H        -0.112732         3.189844        -0.364715
