19
Iteration:  1298charge 0 multiplicity 1
 O         0.491058         0.437768         0.572871
 C        -0.599323         1.294509         0.747718
 C        -1.979205         0.997421         0.366009
 C        -1.836695         1.691075         1.732270
 C        -1.367616         3.189863         1.444222
 C        -0.664207         3.686988         2.742358
 C         0.777455         3.160603         2.528825
 O         1.120565         2.965402         1.140658
 C        -0.189616         2.714910         0.608275
 H         1.273592         0.871624         0.971872
 H        -2.498262         1.605382        -0.354728
 H        -2.177093        -0.120866         0.541946
 H        -2.306839         1.372064         2.755480
 H        -2.025159         3.974407         1.040202
 H        -0.565076         4.799584         2.909374
 H        -1.136799         3.233869         3.588337
 H         1.490331         3.917812         2.990073
 H         0.884186         2.208668         3.114994
 H        -0.259259         2.966033        -0.386072
