19
Iteration:  4037
 O         0.210083         0.054209         0.590294
 C        -0.593995         1.196294         0.648307
 C        -2.022200         1.220244         0.133638
 C        -1.718229         1.557393         1.561928
 C        -1.236932         3.041971         1.686333
 C        -0.582951         3.471711         2.928216
 C         0.824503         3.908491         2.395858
 O         1.105357         3.002270         1.321690
 C        -0.153159         2.690587         0.679965
 H         1.055328         0.483024         0.861193
 H        -2.338754         1.950281        -0.611847
 H        -2.357272         0.203728         0.008295
 H        -2.181348         0.828882         2.174782
 H        -2.059841         3.737382         1.278602
 H        -1.090420         4.372694         3.383491
 H        -0.441113         2.761170         3.752205
 H         0.727595         4.839408         1.941650
 H         1.656419         3.786177         3.121146
 H        -0.072879         3.182614        -0.274361
