19
Iteration:  3492charge 0 multiplicity 1
 O         0.313602         0.156661         0.569594
 C        -0.571171         1.303447         0.502843
 C        -1.972753         1.116128         0.174227
 C        -1.757453         1.581273         1.645044
 C        -1.363249         3.028187         1.637982
 C        -0.619479         3.605325         2.835803
 C         0.919278         3.779724         2.424247
 O         1.063274         2.816560         1.400276
 C        -0.191122         2.793011         0.594593
 H         0.738916         0.255589         1.472534
 H        -2.504332         1.815089        -0.399988
 H        -2.325436         0.049557         0.110906
 H        -1.923904         1.000860         2.526926
 H        -2.177573         3.843907         1.666028
 H        -1.176361         4.401228         3.410123
 H        -0.575619         2.790915         3.619573
 H         1.242094         4.843864         2.050733
 H         1.521974         3.695777         3.282564
 H        -0.027553         3.335390        -0.407457
