19
Iteration:  4203
 O         0.285849         0.166092         0.586302
 C        -0.583893         1.230443         0.589871
 C        -2.061755         1.088996         0.204584
 C        -1.731713         1.530337         1.631347
 C        -1.303374         3.057641         1.614409
 C        -0.637875         3.515266         2.877935
 C         0.912043         3.808435         2.490278
 O         1.160145         2.967670         1.339223
 C        -0.164875         2.816900         0.663448
 H         0.336860        -0.260938        -0.262308
 H        -2.345497         1.888267        -0.564456
 H        -2.378512         0.003976         0.110009
 H        -2.285230         0.961169         2.465635
 H        -2.081276         3.816562         1.192875
 H        -0.962970         4.492019         3.303800
 H        -0.674033         2.705645         3.631433
 H         0.868148         4.894621         2.088917
 H         1.559765         3.519851         3.306296
 H        -0.157571         3.358266        -0.300391
