19
Iteration:  3381
 O         0.262415         0.226987         0.628169
 C        -0.585406         1.276542         0.570636
 C        -2.132069         1.121568         0.144900
 C        -1.733964         1.551493         1.602729
 C        -1.355587         3.009484         1.660635
 C        -0.563508         3.472476         2.865067
 C         0.874602         3.917403         2.376555
 O         1.092183         2.824806         1.429508
 C        -0.125506         2.706844         0.622957
 H         1.057265         0.652495         0.975916
 H        -2.210353         1.917960        -0.580455
 H        -2.594412         0.207160        -0.028496
 H        -1.856660         0.893384         2.472742
 H        -1.970532         3.927714         1.295149
 H        -0.913947         4.400744         3.380257
 H        -0.281326         2.592496         3.493359
 H         1.053280         4.821838         1.786338
 H         1.629185         3.888867         3.124971
 H         0.013709         3.285043        -0.324086
