19
Iteration:  3882
 O         0.222911         0.188335         0.454165
 C        -0.613781         1.271852         0.622645
 C        -1.988162         1.087577         0.237371
 C        -1.588911         1.587199         1.657398
 C        -1.302209         3.078245         1.601873
 C        -0.648006         3.530263         2.829747
 C         0.803276         3.797365         2.421035
 O         1.031084         2.883070         1.440828
 C        -0.123458         2.743420         0.588099
 H         0.952029         0.111635         1.065905
 H        -2.619369         1.630202        -0.372804
 H        -2.252610         0.048939         0.212593
 H        -1.880735         1.194122         2.670734
 H        -2.035038         3.889381         1.383558
 H        -1.014181         4.501656         3.177650
 H        -0.519978         2.796243         3.660157
 H         1.238629         4.826764         2.134603
 H         1.610738         3.467998         3.206876
 H         0.134830         3.331492        -0.327886
