19
Iteration:  1252
 O         0.313236         0.326839         0.749334
 C        -0.616318         1.330005         0.567418
 C        -2.035935         0.979159         0.291347
 C        -1.701488         1.551287         1.668257
 C        -1.325758         3.062332         1.607407
 C        -0.597561         3.779984         2.737915
 C         0.856170         3.213848         2.571828
 O         1.094577         3.095615         1.167741
 C        -0.208390         2.807915         0.510028
 H         1.178580         0.753488         1.115834
 H        -2.422564         1.669237        -0.519294
 H        -2.049186        -0.099475         0.060521
 H        -1.900069         0.881685         2.504556
 H        -2.150420         3.594378         1.225982
 H        -0.787225         4.788898         2.476960
 H        -0.924560         3.555127         3.759886
 H         1.577072         3.870015         3.092874
 H         0.900283         2.188030         3.083664
 H        -0.246957         3.450270        -0.292830
