19
Iteration:   376
 O         0.363208         0.164446         0.577310
 C        -0.584815         1.224181         0.653317
 C        -2.020858         1.110583         0.282251
 C        -1.769506         1.752147         1.625176
 C        -1.353637         3.210329         1.596754
 C        -0.606998         3.535046         2.903779
 C         0.868853         3.618958         2.447625
 O         1.036813         2.886541         1.232587
 C        -0.139881         2.698325         0.555505
 H         1.131479         0.470701         0.957679
 H        -2.552888         1.634610        -0.504362
 H        -2.428415         0.082311         0.405256
 H        -2.064425         1.265605         2.544302
 H        -2.082136         3.853094         1.219616
 H        -0.846132         4.475360         3.468769
 H        -0.817886         2.815631         3.729007
 H         1.275965         4.678509         2.239231
 H         1.458746         3.164958         3.277283
 H        -0.043034         3.042477        -0.440591
