19
Iteration:  4650
 O         0.339512         0.265212         0.660778
 C        -0.593106         1.317649         0.538639
 C        -2.000592         1.073260         0.169228
 C        -1.716627         1.611939         1.627361
 C        -1.392446         3.089879         1.599935
 C        -0.532493         3.407829         2.955204
 C         0.934680         3.710452         2.458966
 O         1.004140         2.883971         1.290827
 C        -0.220798         2.810821         0.533688
 H         0.860721         0.394303         1.493018
 H        -2.334703         1.854970        -0.543362
 H        -2.309077         0.102408        -0.093652
 H        -2.058166         0.942198         2.415265
 H        -2.281762         3.765429         1.433521
 H        -1.010389         4.240580         3.612359
 H        -0.536663         2.434206         3.435104
 H         1.019368         4.811945         2.270299
 H         1.810102         3.495280         3.222103
 H        -0.251761         3.405403        -0.436436
