19
Iteration:  4311
 O         0.167319         0.082559         0.562085
 C        -0.554049         1.227966         0.647422
 C        -1.919266         1.207997         0.105113
 C        -1.828087         1.532621         1.668666
 C        -1.349616         3.004480         1.613943
 C        -0.530375         3.466261         2.981916
 C         0.821684         3.902865         2.414874
 O         1.124872         3.010937         1.300540
 C        -0.104476         2.715823         0.672640
 H         1.111993         0.300667         0.448137
 H        -2.527301         1.866713        -0.454668
 H        -2.213116         0.208746        -0.108425
 H        -2.239871         0.937326         2.478280
 H        -2.033562         3.770557         1.332989
 H        -0.893401         4.245451         3.719212
 H        -0.543433         2.586327         3.612629
 H         0.760604         4.905599         1.915701
 H         1.750210         3.931846         3.003464
 H        -0.129143         3.146268        -0.366732
