19
Iteration:  1495charge 0 multiplicity 1
 O         0.282585         0.247710         0.480743
 C        -0.569882         1.255198         0.803322
 C        -1.968173         0.900104         0.309472
 C        -1.716835         1.603537         1.685583
 C        -1.357855         3.155971         1.551970
 C        -0.634450         3.824014         2.796889
 C         0.838697         3.295344         2.615493
 O         1.092506         3.126224         1.177398
 C        -0.164498         2.763833         0.604107
 H         1.169554         0.380724         0.647825
 H        -2.392541         1.387212        -0.673798
 H        -2.291624        -0.085178         0.394163
 H        -2.092703         1.045398         2.470747
 H        -2.058456         3.670422         0.997756
 H        -0.794708         4.870706         2.504453
 H        -1.076619         3.685579         3.736500
 H         1.651343         4.017257         2.868686
 H         0.962246         2.422344         3.196323
 H        -0.052817         3.151862        -0.441352
