19
Iteration:   548
 O         0.441529         0.244676         0.472155
 C        -0.621928         1.211051         0.707118
 C        -2.101326         1.199706         0.318600
 C        -1.711515         1.556865         1.717610
 C        -1.334447         3.033039         1.622640
 C        -0.640373         3.833535         2.671931
 C         0.903576         3.457563         2.679874
 O         1.043863         2.871800         1.266836
 C        -0.217028         2.665717         0.534832
 H         1.232743         0.685536         0.757184
 H        -2.504311         2.032662        -0.205806
 H        -2.363312         0.260225        -0.053140
 H        -1.987304         1.065937         2.611873
 H        -2.181697         3.737833         1.213715
 H        -0.714639         4.847902         2.268385
 H        -1.143081         3.872032         3.599679
 H         1.628143         4.386912         2.714484
 H         1.229380         2.682825         3.385354
 H        -0.135123         3.160885        -0.512611
