19
Iteration:  3756charge 0 multiplicity 1
 O         0.223265         0.102218         0.567312
 C        -0.555028         1.311918         0.613281
 C        -1.966341         1.117427         0.167055
 C        -1.715374         1.599741         1.635001
 C        -1.325758         3.024022         1.601278
 C        -0.603968         3.481636         2.890179
 C         0.819978         3.813824         2.466273
 O         1.169179         2.928978         1.313311
 C        -0.193965         2.804966         0.606861
 H         0.918998         0.105607         1.242601
 H        -2.483904         1.987638        -0.363957
 H        -2.364969         0.107470         0.382481
 H        -2.074830         0.958930         2.421472
 H        -2.088558         3.786514         1.223494
 H        -1.163164         4.392273         3.292458
 H        -0.693977         2.625621         3.626794
 H         0.966755         4.825041         2.055260
 H         1.517324         3.575121         3.202196
 H        -0.173205         3.385972        -0.302609
