19
Iteration:  1722
 O         0.415662         0.284649         0.677368
 C        -0.653919         1.260197         0.495326
 C        -2.145236         1.001306         0.333170
 C        -1.651693         1.576736         1.606589
 C        -1.291446         3.112711         1.607000
 C        -0.574733         3.802798         2.716205
 C         0.887488         3.306067         2.586269
 O         1.005711         3.020250         1.230075
 C        -0.211966         2.767395         0.607015
 H         1.038376         0.773125         1.221155
 H        -2.572911         1.519440        -0.459656
 H        -2.103510        -0.146039         0.249078
 H        -1.950339         0.966704         2.570649
 H        -2.161074         3.687319         1.098274
 H        -0.615787         4.933580         2.591602
 H        -1.050374         3.546135         3.732450
 H         1.539129         4.168798         2.789684
 H         1.272642         2.529432         3.248319
 H        -0.290773         3.315587        -0.349227
