19
Iteration:   391
 O         0.315314         0.262588         0.639607
 C        -0.602330         1.308860         0.669615
 C        -2.073508         1.081427         0.334207
 C        -1.755746         1.652451         1.703679
 C        -1.302794         3.091566         1.485084
 C        -0.615353         3.550168         2.816579
 C         0.884474         3.490261         2.553792
 O         1.121712         2.924642         1.208502
 C        -0.189879         2.749628         0.508618
 H         1.125101         0.808106         0.966810
 H        -2.441731         1.827010        -0.505768
 H        -2.367957         0.050955         0.184313
 H        -2.127096         1.151712         2.619271
 H        -2.000785         3.986681         1.137712
 H        -0.987105         4.615636         2.963877
 H        -0.895744         2.814510         3.629976
 H         1.165406         4.492711         2.570282
 H         1.729351         3.020594         3.164913
 H        -0.180093         3.236317        -0.527158
