19
Iteration:  2596charge 0 multiplicity 1
 O         0.336991         0.142581         0.463643
 C        -0.569225         1.215912         0.685660
 C        -1.982996         1.013315         0.287924
 C        -1.753012         1.673156         1.647470
 C        -1.311621         3.138937         1.612247
 C        -0.640290         3.725672         2.904700
 C         0.873722         3.483038         2.521603
 O         1.077561         3.018489         1.228356
 C        -0.184390         2.775828         0.562220
 H         1.149536         0.523298         0.905172
 H        -2.527684         1.327565        -0.613689
 H        -2.333936        -0.040344         0.392240
 H        -2.051595         1.087120         2.615237
 H        -2.154730         3.646943         1.067613
 H        -0.781078         4.871293         3.130791
 H        -1.218767         3.264875         3.861894
 H         1.381832         4.510470         2.612512
 H         1.198696         2.762037         3.279118
 H        -0.326739         3.256754        -0.359056
