19
Iteration:   407charge 0 multiplicity 1
 O         0.291373         0.360168         0.699558
 C        -0.661837         1.292981         0.635723
 C        -2.067024         1.073499         0.253212
 C        -1.714881         1.586772         1.635895
 C        -1.344287         3.074900         1.567840
 C        -0.599185         3.622373         2.756405
 C         0.940811         3.441101         2.539276
 O         1.101924         2.963717         1.170349
 C        -0.144031         2.732516         0.585817
 H         1.207678         0.755319         1.088174
 H        -2.704630         1.609923        -0.327862
 H        -2.293050         0.003891         0.395004
 H        -1.968146         1.145193         2.594657
 H        -2.224209         3.578780         1.230498
 H        -0.774439         4.648936         2.919027
 H        -0.935782         3.048120         3.586987
 H         1.704197         4.332772         2.672049
 H         0.995650         2.670135         3.232650
 H        -0.064798         3.236202        -0.372261
