19
Iteration:  4356
 O         0.394086         0.157840         0.528296
 C        -0.555869         1.272742         0.554910
 C        -2.046626         1.061047         0.241560
 C        -1.741216         1.666555         1.631690
 C        -1.317457         3.150215         1.626430
 C        -0.545174         3.464346         2.967835
 C         0.769496         3.765326         2.456768
 O         1.064130         2.841092         1.304984
 C        -0.200739         2.804510         0.581950
 H         0.372893        -0.056797         1.489225
 H        -2.351076         1.788542        -0.527870
 H        -2.334054         0.091319        -0.172561
 H        -1.868460         1.073994         2.513576
 H        -2.061492         3.885191         1.294066
 H        -0.962735         4.401563         3.469856
 H        -0.557685         2.695557         3.756780
 H         0.836404         4.819726         2.027243
 H         1.645691         3.727007         3.061179
 H        -0.245633         3.464352        -0.347575
