19
Iteration:  4883
 O         0.343395         0.291381         0.509670
 C        -0.630025         1.254290         0.745000
 C        -2.039122         1.069846         0.198135
 C        -1.895324         1.543580         1.667726
 C        -1.336462         3.054365         1.583994
 C        -0.566488         3.445075         2.864487
 C         0.882353         3.766871         2.473747
 O         1.166377         2.996812         1.239566
 C        -0.183067         2.701420         0.669255
 H         1.128423         0.711811         0.947261
 H        -2.409368         1.793823        -0.662267
 H        -2.213247         0.051921        -0.081784
 H        -2.533951         1.097605         2.523226
 H        -2.037987         3.947855         1.252757
 H        -0.973083         4.341617         3.386210
 H        -0.477924         2.455671         3.462540
 H         1.316790         4.790618         2.520312
 H         1.625230         3.105942         3.151734
 H        -0.213775         3.164244        -0.284584
