19
Iteration:   594
 O         0.177791         0.106527         0.483455
 C        -0.545382         1.317825         0.684874
 C        -1.999902         1.037960         0.359781
 C        -1.654899         1.526903         1.714709
 C        -1.322037         3.096759         1.450925
 C        -0.589846         3.793272         2.706432
 C         0.831884         3.323880         2.720473
 O         1.125871         3.157087         1.232120
 C        -0.198439         2.847748         0.557691
 H         0.922386         0.045455         1.020471
 H        -2.498772         1.444837        -0.452541
 H        -2.123880        -0.042670         0.441202
 H        -1.870807         1.098846         2.752417
 H        -2.263523         3.593949         1.079844
 H        -0.526873         4.812397         2.581430
 H        -1.168057         3.621990         3.584965
 H         1.552068         4.217412         2.974619
 H         1.087169         2.455040         3.317172
 H        -0.076798         3.306345        -0.460993
