19
Iteration:  2228
 O         0.388476         0.233020         0.547329
 C        -0.566973         1.270090         0.667635
 C        -1.998130         1.027823         0.261090
 C        -1.739303         1.541859         1.717567
 C        -1.339708         3.116495         1.600749
 C        -0.582491         3.775354         2.745430
 C         0.859560         3.297844         2.576309
 O         1.041137         3.114039         1.244848
 C        -0.247208         2.769512         0.562097
 H         1.096319         0.511502         1.094893
 H        -2.601762         1.704082        -0.442367
 H        -2.330740         0.030399         0.164003
 H        -2.127632         0.922127         2.500322
 H        -2.150960         3.723922         1.218314
 H        -0.644683         4.904215         2.560287
 H        -1.034637         3.555538         3.697838
 H         1.561005         4.105620         2.930853
 H         1.063108         2.321508         3.101700
 H        -0.180168         3.182398        -0.440439
