19
Iteration:  3538charge 0 multiplicity 1
 O         0.370990         0.184474         0.439518
 C        -0.591514         1.237407         0.653402
 C        -2.049641         1.195450         0.232940
 C        -1.787664         1.670238         1.624479
 C        -1.359581         3.044175         1.595736
 C        -0.589599         3.549328         2.862471
 C         0.820996         3.923536         2.394374
 O         1.068041         2.723713         1.433966
 C        -0.121259         2.629756         0.703175
 H         1.324102         0.385959         0.628003
 H        -2.277276         1.752098        -0.669606
 H        -2.210383         0.195268         0.168524
 H        -2.149029         0.975923         2.421432
 H        -2.191466         3.749812         1.225026
 H        -1.052688         4.435035         3.394939
 H        -0.525948         2.922579         3.806283
 H         1.003912         4.974384         1.906810
 H         1.492173         3.905901         3.228919
 H        -0.150302         3.257600        -0.249356
