19
Iteration:  3934
 O         0.294862         0.250801         0.569915
 C        -0.594324         1.278728         0.651061
 C        -2.009068         1.175779         0.220419
 C        -1.784896         1.496318         1.636745
 C        -1.342433         3.041106         1.621719
 C        -0.558810         3.562495         2.860038
 C         0.907422         3.814498         2.441843
 O         1.036765         2.839312         1.349472
 C        -0.176325         2.689187         0.603418
 H         1.230701         0.477895         0.749889
 H        -2.344574         1.738424        -0.660834
 H        -2.262124         0.174452        -0.057127
 H        -2.310975         0.825898         2.407582
 H        -2.100896         3.807307         1.188086
 H        -0.986064         4.460411         3.320652
 H        -0.551002         2.831506         3.761153
 H         1.073006         4.794741         2.137443
 H         1.833606         3.666803         2.995951
 H        -0.041596         3.174595        -0.337055
