19
Iteration:  1088
 O         0.361205         0.233266         0.492162
 C        -0.584852         1.287595         0.671372
 C        -2.079681         0.939990         0.441373
 C        -1.672052         1.641089         1.699501
 C        -1.294489         3.151650         1.451388
 C        -0.596420         3.866694         2.658219
 C         0.722787         3.131418         2.696834
 O         1.130684         3.156220         1.246084
 C        -0.193753         2.801520         0.543858
 H         1.170881         0.671259         0.801138
 H        -2.639342         1.344851        -0.391811
 H        -2.081608        -0.163643         0.494635
 H        -1.989288         1.174851         2.652832
 H        -2.118248         3.794135         1.253532
 H        -0.582361         4.919573         2.546637
 H        -1.100085         3.587242         3.648792
 H         1.486809         3.561628         3.361109
 H         0.591233         2.074737         2.941643
 H        -0.073262         3.073190        -0.444391
