19
Iteration:  3865
 O         0.203223         0.160668         0.497110
 C        -0.598472         1.347278         0.557026
 C        -2.010052         1.091150         0.258362
 C        -1.633895         1.515158         1.640262
 C        -1.305206         3.009773         1.566681
 C        -0.622160         3.662688         2.938823
 C         0.829042         3.816980         2.473048
 O         1.115546         2.799831         1.363553
 C        -0.122032         2.765053         0.624962
 H         0.922073         0.438023         1.073504
 H        -2.586751         1.779090        -0.519821
 H        -2.332014         0.040383        -0.030378
 H        -1.697089         0.841679         2.444715
 H        -2.139323         3.561036         1.121192
 H        -1.119130         4.540878         3.424770
 H        -0.852228         2.911117         3.668917
 H         0.922411         4.809405         2.025965
 H         1.564985         3.910335         3.223313
 H        -0.078643         3.390450        -0.279339
