19
Iteration:  4850
 O         0.356468         0.230527         0.638695
 C        -0.574570         1.226072         0.565417
 C        -2.037020         1.121860         0.176819
 C        -1.662801         1.581324         1.608166
 C        -1.275828         3.117230         1.710497
 C        -0.565683         3.518873         3.016227
 C         0.807449         3.685552         2.403927
 O         0.993250         2.841016         1.217297
 C        -0.211571         2.834493         0.535655
 H         1.148119         0.597571         1.109076
 H        -2.479535         1.866406        -0.632842
 H        -2.315605         0.117228        -0.062387
 H        -2.030778         0.945960         2.418160
 H        -2.202700         3.714724         1.353684
 H        -1.124711         4.433429         3.388673
 H        -0.603831         2.819337         3.937616
 H         0.989264         4.794433         2.420298
 H         1.570001         3.137077         3.100258
 H        -0.155016         3.495386        -0.299637
