19
Iteration:  2533
 O         0.363318         0.234265         0.647459
 C        -0.587601         1.281919         0.660312
 C        -1.921092         1.020761         0.314596
 C        -1.635376         1.630330         1.670804
 C        -1.355649         3.109968         1.569586
 C        -0.499483         3.846561         2.737155
 C         0.737917         3.051690         2.605886
 O         0.952661         3.188718         1.185318
 C        -0.258557         2.819717         0.477474
 H         1.240682         0.589359         0.972731
 H        -2.424744         1.544699        -0.435060
 H        -2.143016        -0.082716         0.479185
 H        -1.721272         0.937849         2.572952
 H        -2.275569         3.736311         1.506708
 H        -0.534737         4.934262         2.583576
 H        -0.860965         3.605167         3.720049
 H         1.676889         3.540562         3.045547
 H         0.567512         1.985987         2.892190
 H        -0.196222         3.417820        -0.464160
