19
Iteration:  4706
 O         0.283637         0.149416         0.332752
 C        -0.560152         1.233297         0.731802
 C        -1.977688         1.208058         0.166984
 C        -1.718617         1.604492         1.656402
 C        -1.337936         3.012950         1.711855
 C        -0.550674         3.566059         2.865453
 C         0.774341         3.872065         2.405859
 O         1.055168         2.873124         1.416148
 C        -0.112898         2.674251         0.664932
 H         1.071148         0.230828         0.949564
 H        -2.451470         1.794310        -0.642751
 H        -2.399134         0.154455         0.143020
 H        -2.086692         0.948791         2.340403
 H        -2.235000         3.645985         1.421188
 H        -1.167648         4.333042         3.486644
 H        -0.633058         2.703486         3.562531
 H         0.954553         4.866528         1.915533
 H         1.486211         3.721059         3.309034
 H        -0.004223         3.278912        -0.275660
