19
Iteration:  2900
 O         0.283030         0.068290         0.517729
 C        -0.591505         1.294473         0.618799
 C        -2.072581         1.214470         0.209736
 C        -1.752972         1.563550         1.658031
 C        -1.297002         3.004092         1.635263
 C        -0.607808         3.506312         2.795685
 C         0.886598         3.894037         2.458352
 O         1.065574         2.936873         1.382180
 C        -0.104667         2.721108         0.618898
 H         1.056805         0.145088         1.186828
 H        -2.510313         1.909787        -0.669415
 H        -2.371494         0.213645         0.073720
 H        -2.018167         0.884691         2.533683
 H        -2.057801         3.738149         1.373039
 H        -1.119364         4.317547         3.250713
 H        -0.474940         2.813401         3.587002
 H         1.106126         4.850238         2.043875
 H         1.561956         3.556779         3.227333
 H        -0.122652         3.203712        -0.309506
