19
Iteration:  3725charge 0 multiplicity 1
 O         0.348744         0.148746         0.547932
 C        -0.593360         1.181381         0.786651
 C        -1.986102         1.171320         0.112199
 C        -1.874676         1.631779         1.594412
 C        -1.329252         3.010645         1.608956
 C        -0.549795         3.530250         2.895289
 C         0.878419         3.801842         2.463929
 O         1.078274         2.976378         1.300099
 C        -0.210412         2.683782         0.583860
 H         1.173603         0.525087         0.970492
 H        -2.375865         1.882430        -0.614564
 H        -2.621607         0.245036         0.076306
 H        -2.086327         0.956960         2.350364
 H        -2.081333         3.823249         1.355291
 H        -1.035299         4.358109         3.414993
 H        -0.497038         2.903779         3.835060
 H         1.247897         4.856906         2.394772
 H         1.569017         3.454705         3.225290
 H         0.004827         2.951431        -0.489397
