19
Iteration:  1111charge 0 multiplicity 1
 O         0.443142         0.383387         0.516888
 C        -0.567266         1.299155         0.682628
 C        -1.978188         1.057535         0.409990
 C        -1.760106         1.695727         1.766121
 C        -1.418664         3.087895         1.514833
 C        -0.680778         3.803577         2.637441
 C         0.787845         3.139168         2.616012
 O         1.052885         2.934841         1.231469
 C        -0.138446         2.720164         0.591861
 H         1.242436         0.984052         0.609831
 H        -2.509874         1.592150        -0.351744
 H        -2.219561         0.048252         0.469558
 H        -2.069216         1.182516         2.632168
 H        -2.181270         3.737694         1.033835
 H        -0.517661         4.815906         2.331117
 H        -0.953136         3.815221         3.716193
 H         1.508426         3.914285         2.903974
 H         1.024792         2.230129         3.140605
 H        -0.044950         3.048151        -0.453291
