19
Iteration:  2812
 O         0.331594         0.338561         0.693345
 C        -0.540036         1.341116         0.581209
 C        -2.006701         1.142144         0.242050
 C        -1.770038         1.611546         1.623193
 C        -1.345638         3.105127         1.630065
 C        -0.577311         3.399090         2.941068
 C         0.801376         3.669303         2.338853
 O         1.097902         2.780281         1.288205
 C        -0.156548         2.725430         0.536628
 H         1.116058         0.798697         1.099878
 H        -2.497747         1.748293        -0.604613
 H        -2.533608         0.124132         0.153667
 H        -2.304243         1.057586         2.510166
 H        -1.949234         3.951859         1.260275
 H        -0.956490         4.300489         3.336715
 H        -0.653772         2.687389         3.675589
 H         0.711512         4.708498         2.014472
 H         1.574711         3.585446         3.118847
 H        -0.086143         3.300479        -0.351835
