19
Iteration:  1648
 O         0.285337         0.149616         0.644503
 C        -0.622126         1.177546         0.649489
 C        -2.033217         0.927662         0.243826
 C        -1.623724         1.557284         1.676414
 C        -1.351379         3.176347         1.562779
 C        -0.590131         3.744127         2.806339
 C         0.850156         3.286593         2.549435
 O         1.081613         3.304175         1.147357
 C        -0.164937         2.854659         0.603951
 H         0.909805         0.185187         1.330816
 H        -2.560712         1.475558        -0.521470
 H        -2.301386        -0.220103         0.399982
 H        -2.057053         1.060748         2.623421
 H        -2.107095         3.825382         1.125608
 H        -0.604513         4.794497         2.589829
 H        -0.998858         3.612665         3.741488
 H         1.632082         3.912550         3.132398
 H         0.979776         2.197152         2.881990
 H        -0.187657         3.314271        -0.453133
