19
Iteration:   849
 O         0.327242         0.346272         0.583626
 C        -0.632807         1.320644         0.632654
 C        -1.946387         0.937741         0.360757
 C        -1.689720         1.700163         1.626498
 C        -1.403487         3.168736         1.481205
 C        -0.581400         3.766383         2.726852
 C         0.859208         3.279916         2.560545
 O         1.049141         2.791165         1.293462
 C        -0.215785         2.865181         0.557169
 H         1.023965         0.571487         1.257900
 H        -2.509670         1.319186        -0.434004
 H        -1.903546        -0.123821         0.599352
 H        -1.916275         1.213219         2.641511
 H        -2.179987         3.892975         1.154621
 H        -0.655769         4.809834         2.698261
 H        -1.053827         3.481431         3.670906
 H         1.520131         4.133187         2.703015
 H         1.289300         2.492199         3.234902
 H        -0.165693         3.641673        -0.282066
