19
Iteration:  4122charge 0 multiplicity 1
 O         0.223927         0.266101         0.535905
 C        -0.659519         1.260214         0.639609
 C        -2.001090         1.096681         0.202143
 C        -1.696269         1.568178         1.631325
 C        -1.329074         2.940533         1.535819
 C        -0.588327         3.535249         2.831916
 C         0.910398         3.840428         2.450048
 O         1.069557         2.846114         1.388532
 C        -0.110909         2.734545         0.720073
 H         1.061265         0.587976         0.205715
 H        -2.402129         1.842194        -0.406105
 H        -2.277064         0.090223         0.134693
 H        -2.199456         1.168863         2.442653
 H        -2.089414         3.549225         1.098934
 H        -1.069637         4.466405         3.277610
 H        -0.509200         2.869658         3.769615
 H         1.018154         4.956924         2.138558
 H         1.690070         3.760353         3.320378
 H        -0.073769         3.289872        -0.266785
