19
Iteration:   108
 O         0.248253        -0.002538         0.564042
 C        -0.561128         1.143226         0.761203
 C        -2.066569         0.993775         0.232348
 C        -1.631104         1.597244         1.644953
 C        -1.325082         3.146418         1.634320
 C        -0.542047         3.840341         2.755276
 C         0.864409         3.206059         2.569539
 O         0.991789         3.392901         1.162439
 C        -0.108255         2.880719         0.593283
 H         1.003189        -0.070133         1.321999
 H        -2.430298         1.719621        -0.610646
 H        -2.529100        -0.055056         0.166318
 H        -1.967086         1.218946         2.573948
 H        -2.176315         3.690647         1.288359
 H        -0.476910         4.962738         2.509558
 H        -1.008911         3.634128         3.768090
 H         1.634980         3.655189         3.112109
 H         0.954814         2.172314         3.015441
 H        -0.258603         3.240595        -0.432473
