19
Iteration:  4116
 O         0.267219         0.229210         0.523260
 C        -0.607731         1.294206         0.653831
 C        -2.012380         1.133574         0.200761
 C        -1.722499         1.547735         1.622971
 C        -1.325552         3.021183         1.562368
 C        -0.613591         3.508659         2.839474
 C         0.922358         3.842987         2.422613
 O         1.053011         2.859197         1.416256
 C        -0.141561         2.685765         0.714506
 H         1.127361         0.632938         0.367109
 H        -2.711510         1.768644        -0.470580
 H        -2.400968         0.084888         0.107393
 H        -2.124507         1.131049         2.605387
 H        -2.086625         3.654124         0.973135
 H        -1.022558         4.419249         3.247279
 H        -0.485674         2.718118         3.547324
 H         1.097391         4.861476         2.075139
 H         1.684337         3.765689         3.170673
 H        -0.041197         3.228938        -0.213587
