19
Iteration:  4326
 O         0.199603         0.170270         0.526017
 C        -0.624889         1.251554         0.730324
 C        -2.047647         1.142612         0.172868
 C        -1.750079         1.541585         1.598623
 C        -1.241959         3.013507         1.655618
 C        -0.545513         3.411645         2.874815
 C         0.814780         3.906881         2.436658
 O         1.130527         2.996857         1.316813
 C        -0.137323         2.680249         0.641785
 H         0.961872         0.413054         1.063287
 H        -2.155033         1.985777        -0.628675
 H        -2.361975         0.139519        -0.215082
 H        -2.055394         1.000101         2.499862
 H        -2.018614         3.742474         1.247860
 H        -1.166327         4.177193         3.206345
 H        -0.240948         2.578850         3.496046
 H         0.905720         4.982316         2.247832
 H         1.543183         3.809055         3.248919
 H        -0.156138         3.212908        -0.344489
