19
Iteration:  1272
 O         0.531091         0.329311         0.692662
 C        -0.608349         1.284782         0.663921
 C        -2.023101         1.028081         0.280275
 C        -1.687169         1.697498         1.642002
 C        -1.407585         3.175136         1.499247
 C        -0.587626         3.712048         2.787458
 C         0.843719         3.220944         2.607377
 O         0.955862         2.947852         1.154002
 C        -0.234240         2.758197         0.543690
 H         1.468915         0.803391         0.734790
 H        -2.543203         1.691219        -0.541014
 H        -2.509996         0.147348         0.628904
 H        -1.999952         1.238848         2.522352
 H        -2.235433         3.825125         1.396556
 H        -0.528550         4.767265         2.827719
 H        -1.107830         3.359341         3.719636
 H         1.573275         3.950084         2.871371
 H         0.998453         2.282320         3.172233
 H        -0.302394         3.079839        -0.538118
