19
Iteration:  3390
 O         0.264337         0.173780         0.667959
 C        -0.655032         1.297977         0.547917
 C        -2.055704         1.151375         0.157585
 C        -1.670903         1.546473         1.562633
 C        -1.326784         3.050347         1.671157
 C        -0.558458         3.460877         2.900370
 C         0.873719         3.895467         2.321387
 O         1.108197         2.784560         1.386314
 C        -0.157500         2.789053         0.659280
 H         1.018720         0.545431         1.132644
 H        -2.516283         1.876804        -0.606414
 H        -2.340261         0.177919         0.003945
 H        -1.870863         0.737421         2.301936
 H        -2.026526         3.895286         1.446879
 H        -1.109531         4.317713         3.151084
 H        -0.654877         2.793951         3.771123
 H         0.711699         4.913657         1.896477
 H         1.652624         3.694957         3.077467
 H        -0.066563         3.500279        -0.249559
