19
Iteration:  4062
 O         0.262972         0.175538         0.554754
 C        -0.575577         1.293304         0.651752
 C        -2.011959         1.131671         0.133207
 C        -1.796890         1.479172         1.610727
 C        -1.362347         3.022078         1.680555
 C        -0.525208         3.538742         2.890626
 C         0.848500         3.922853         2.402590
 O         1.107379         2.875792         1.349571
 C        -0.134549         2.745621         0.628069
 H         0.446008         0.053711         1.482346
 H        -2.381862         2.025709        -0.529690
 H        -2.200759         0.132409        -0.324879
 H        -1.994659         0.805134         2.509148
 H        -2.200296         3.637871         1.285315
 H        -0.925635         4.364761         3.461204
 H        -0.245186         2.766861         3.574171
 H         0.964933         4.861524         1.878815
 H         1.492342         3.697640         3.191327
 H        -0.034302         3.324384        -0.333503
