19
Iteration:  4717charge 0 multiplicity 1
 O         0.285778         0.141217         0.346874
 C        -0.578623         1.202280         0.559104
 C        -2.033531         1.193255         0.174001
 C        -1.615907         1.503732         1.650920
 C        -1.309267         3.065539         1.694573
 C        -0.620628         3.587706         2.932892
 C         0.825475         3.923834         2.390297
 O         1.007646         2.861123         1.464690
 C        -0.132468         2.693607         0.718812
 H         0.777495        -0.140126         1.127401
 H        -2.229117         1.951786        -0.596242
 H        -2.452265         0.141742         0.075926
 H        -2.009729         0.998316         2.463736
 H        -2.079717         3.730329         1.205040
 H        -1.065048         4.553695         3.403217
 H        -0.418360         2.767425         3.665826
 H         0.875490         4.987709         1.995637
 H         1.718517         3.775482         3.113391
 H        -0.084746         3.246186        -0.253803
