19
Iteration:   458
 O         0.384155         0.285178         0.588912
 C        -0.541656         1.294050         0.755068
 C        -1.989034         1.092820         0.402198
 C        -1.719390         1.588715         1.763874
 C        -1.420115         3.182578         1.604231
 C        -0.595951         3.832386         2.697700
 C         0.722925         3.029635         2.499346
 O         1.076591         3.170401         1.158568
 C        -0.167920         2.710676         0.503939
 H         1.202727         0.593118         0.836252
 H        -2.360137         1.733157        -0.437390
 H        -2.123347        -0.034179         0.262955
 H        -1.961086         0.988257         2.683510
 H        -2.242244         3.721540         0.975310
 H        -0.292650         4.869429         2.394001
 H        -0.925725         3.732899         3.754971
 H         1.512743         3.424663         3.119863
 H         0.529908         1.978322         2.950798
 H        -0.030017         3.043203        -0.583100
