19
Iteration:  4964charge 0 multiplicity 1
 O         0.366954         0.202760         0.412665
 C        -0.626484         1.201846         0.644537
 C        -2.051635         1.161853         0.127196
 C        -1.793777         1.557497         1.603117
 C        -1.260939         2.953719         1.735513
 C        -0.582415         3.595382         2.968520
 C         0.790020         3.885238         2.367841
 O         1.113284         2.852950         1.359223
 C        -0.151921         2.700830         0.730162
 H         1.140104         0.375024         1.011405
 H        -2.400321         1.968496        -0.481561
 H        -2.492663         0.156123         0.000086
 H        -2.284461         1.000166         2.344565
 H        -2.004916         3.672344         1.500927
 H        -1.069301         4.404574         3.502834
 H        -0.482794         2.795565         3.725480
 H         0.755115         4.874231         1.821511
 H         1.640249         3.886457         2.859341
 H        -0.205242         3.385925        -0.125383
