19
Iteration:   543
 O         0.409597         0.290030         0.478686
 C        -0.598391         1.264759         0.669178
 C        -2.069844         1.140805         0.317953
 C        -1.750431         1.563705         1.722115
 C        -1.369159         3.053131         1.634452
 C        -0.595960         3.796001         2.645358
 C         0.901651         3.435326         2.665848
 O         1.024255         2.877633         1.278770
 C        -0.176951         2.654958         0.559489
 H         1.245971         0.792100         0.813237
 H        -2.674505         1.964416        -0.239876
 H        -2.437247         0.121090        -0.084537
 H        -1.971149         1.102459         2.722238
 H        -2.094882         3.688938         1.198243
 H        -0.686745         4.870227         2.232602
 H        -1.031324         3.949165         3.714228
 H         1.487199         4.276397         2.551583
 H         1.229332         2.707237         3.453389
 H         0.050143         3.029597        -0.419751
