19
Iteration:  3007charge 0 multiplicity 1
 O         0.216478         0.062691         0.518365
 C        -0.577282         1.274350         0.563602
 C        -1.976554         1.026648         0.204246
 C        -1.670833         1.616249         1.598977
 C        -1.335662         3.139533         1.662639
 C        -0.615651         3.653901         2.879224
 C         0.875230         3.762154         2.485125
 O         1.077799         2.874034         1.375048
 C        -0.207181         2.798024         0.586275
 H         0.988169         0.466812         1.057327
 H        -2.533191         1.584229        -0.521608
 H        -2.023395         0.014189         0.191800
 H        -1.864397         0.932625         2.418550
 H        -2.134643         3.863926         1.497010
 H        -0.980367         4.614166         3.197989
 H        -0.592237         2.813863         3.680905
 H         1.255524         4.785659         2.269348
 H         1.607227         3.406503         3.214219
 H        -0.191535         3.369713        -0.430282
