19
Iteration:  4554charge 0 multiplicity 1
 O         0.170715         0.139671         0.681675
 C        -0.565366         1.271356         0.588893
 C        -2.024203         1.159640         0.168704
 C        -1.657339         1.499661         1.519757
 C        -1.318253         3.021513         1.688821
 C        -0.559134         3.446985         2.921177
 C         0.831980         3.879035         2.445789
 O         1.077201         2.967402         1.318694
 C        -0.124988         2.761337         0.640265
 H         0.882482         0.258107        -0.001396
 H        -2.448145         1.984672        -0.529856
 H        -2.228390         0.168124        -0.178689
 H        -1.755120         0.860926         2.348146
 H        -2.029519         3.779151         1.405829
 H        -1.187389         4.250740         3.433997
 H        -0.381619         2.485256         3.482374
 H         0.833482         4.942932         2.068780
 H         1.580895         3.770889         3.198809
 H        -0.079541         3.403457        -0.270859
