19
Iteration:  2235
 O         0.338246         0.193968         0.535724
 C        -0.567387         1.271801         0.662101
 C        -1.974879         1.065095         0.286607
 C        -1.687489         1.554273         1.760957
 C        -1.272932         3.129787         1.585539
 C        -0.632989         3.771754         2.748210
 C         0.780622         3.286080         2.587192
 O         0.978393         3.137506         1.188369
 C        -0.190654         2.774384         0.581280
 H         1.166138         0.434318         1.019564
 H        -2.299098         1.734307        -0.497680
 H        -2.122202        -0.128965         0.110053
 H        -1.885989         0.992675         2.746609
 H        -2.030611         3.793991         1.132134
 H        -0.570381         4.808562         2.697147
 H        -0.956936         3.409434         3.733968
 H         1.549075         3.977259         2.971880
 H         0.868372         2.333473         3.093167
 H        -0.092029         3.207829        -0.506020
