19
Iteration:   231
 O         0.304463         0.144838         0.554274
 C        -0.547417         1.254287         0.635102
 C        -2.025389         1.160616         0.317578
 C        -1.569082         1.652919         1.646889
 C        -1.294759         3.148541         1.576988
 C        -0.624332         3.639467         2.812158
 C         0.831961         3.622553         2.436756
 O         0.971318         2.752378         1.336960
 C        -0.202911         2.805919         0.565169
 H         1.000095         0.336739         1.105360
 H        -2.431959         1.889280        -0.387608
 H        -2.433397         0.186414         0.274260
 H        -1.726631         1.094832         2.627045
 H        -2.045505         3.788114         1.240445
 H        -0.883458         4.695388         3.045687
 H        -0.893016         2.984835         3.634998
 H         0.976231         4.581645         2.060261
 H         1.494430         3.425469         3.247415
 H        -0.137704         3.335923        -0.363766
