19
Iteration:  3225charge 0 multiplicity 1
 O         0.304809         0.241045         0.543037
 C        -0.615904         1.303178         0.568152
 C        -2.066482         1.082142         0.236244
 C        -1.696165         1.583994         1.608779
 C        -1.238863         3.108373         1.654946
 C        -0.588818         3.568054         2.868673
 C         0.773323         3.796165         2.429264
 O         1.093087         2.744336         1.398642
 C        -0.144462         2.744169         0.600805
 H         1.139792         0.424199         1.002804
 H        -2.459899         1.644938        -0.560949
 H        -2.286565        -0.059469         0.230759
 H        -2.063833         0.944945         2.413542
 H        -1.954381         3.930315         1.362604
 H        -1.026744         4.491838         3.209754
 H        -0.898485         2.889075         3.729440
 H         0.641364         4.635351         1.761781
 H         1.629613         3.838678         3.121189
 H        -0.007026         3.349751        -0.304238
