19
Iteration:  2535
 O         0.355187         0.236118         0.651080
 C        -0.579683         1.273001         0.652265
 C        -1.928149         1.022431         0.306396
 C        -1.628918         1.625601         1.683249
 C        -1.365719         3.102187         1.576905
 C        -0.505172         3.846866         2.742482
 C         0.742779         3.059712         2.617265
 O         0.954200         3.199714         1.163027
 C        -0.228665         2.817546         0.494523
 H         1.175850         0.593355         0.966246
 H        -2.476869         1.607802        -0.438629
 H        -2.180059        -0.135582         0.467293
 H        -1.718241         0.944064         2.552842
 H        -2.267161         3.712888         1.478082
 H        -0.514129         4.900725         2.541842
 H        -0.892111         3.604081         3.673196
 H         1.640766         3.506182         3.090502
 H         0.567917         1.998889         2.897291
 H        -0.216310         3.435018        -0.502716
