19
Iteration:  2647
 O         0.370337         0.263454         0.541759
 C        -0.587672         1.265061         0.546028
 C        -2.049072         1.134743         0.319024
 C        -1.631589         1.598774         1.628399
 C        -1.334895         3.105360         1.656643
 C        -0.649244         3.606781         2.879961
 C         0.827090         3.728900         2.380557
 O         1.072143         2.705647         1.348047
 C        -0.168652         2.728864         0.598847
 H         1.084938         0.593244         1.180983
 H        -2.590523         1.946258        -0.359090
 H        -2.518236         0.250918         0.007951
 H        -1.987343         0.996569         2.494675
 H        -2.155331         3.763861         1.401894
 H        -1.202910         4.482992         3.068495
 H        -0.783222         3.035698         3.748412
 H         1.008245         4.637388         1.869717
 H         1.437728         3.497965         3.260921
 H        -0.088675         3.352790        -0.391430
