19
Iteration:  1771
 O         0.492865         0.312868         0.460467
 C        -0.568420         1.279549         0.712140
 C        -2.002156         1.057286         0.428425
 C        -1.656382         1.666857         1.843054
 C        -1.336324         3.136930         1.467821
 C        -0.627437         3.809238         2.656076
 C         0.701364         3.150165         2.651653
 O         1.020469         2.992991         1.198429
 C        -0.229890         2.739219         0.523602
 H         1.335233         0.791606         0.833133
 H        -2.701585         1.749955        -0.173633
 H        -2.353343         0.093475         0.582391
 H        -1.986144         1.289945         2.736892
 H        -2.132668         3.702504         1.019770
 H        -0.414756         4.827047         2.493842
 H        -1.200786         3.720532         3.526894
 H         1.554348         3.693234         3.151147
 H         0.702761         2.104971         3.058436
 H        -0.231033         3.162159        -0.537846
