19
Iteration:  1679charge 0 multiplicity 1
 O         0.268661         0.110478         0.569075
 C        -0.457402         1.223888         0.743677
 C        -1.869369         1.139567         0.351360
 C        -1.743703         1.658411         1.729384
 C        -1.373965         3.113357         1.489332
 C        -0.633188         3.680211         2.769002
 C         0.868914         3.298286         2.510074
 O         0.945505         3.263954         1.147494
 C        -0.157277         2.678842         0.645269
 H         1.256302         0.222137         0.810823
 H        -2.415107         1.740171        -0.325511
 H        -2.250745         0.077185         0.314162
 H        -2.170994         1.175522         2.674299
 H        -2.021573         3.858249         0.899545
 H        -0.723338         4.774687         2.691360
 H        -1.063999         3.422523         3.729660
 H         1.613404         3.972312         2.963289
 H         1.001181         2.322755         2.994799
 H        -0.113741         3.037683        -0.444518
