19
Iteration:   213charge 0 multiplicity 1
 O         0.342080         0.340687         0.556079
 C        -0.641105         1.342371         0.589960
 C        -2.016447         1.047603         0.279405
 C        -1.768919         1.610975         1.695153
 C        -1.361446         3.096821         1.585479
 C        -0.606660         3.719364         2.836786
 C         0.929491         3.611881         2.440755
 O         1.054330         2.689765         1.323109
 C        -0.133326         2.717804         0.568883
 H         0.943124         0.555892         1.205428
 H        -2.647568         1.585356        -0.400771
 H        -2.154738        -0.028613         0.225926
 H        -2.142814         1.040061         2.571214
 H        -2.263821         3.694142         1.238840
 H        -0.886141         4.758134         2.990909
 H        -0.832240         3.284894         3.822834
 H         1.480971         4.590844         2.184841
 H         1.528838         3.109277         3.194853
 H        -0.037482         3.251997        -0.427637
