19
Iteration:  3126charge 0 multiplicity 1
 O         0.253590         0.141487         0.589110
 C        -0.599958         1.254587         0.611228
 C        -2.003414         1.215053         0.229845
 C        -1.737518         1.600486         1.603605
 C        -1.275822         3.039032         1.583520
 C        -0.552282         3.425751         2.880614
 C         0.784758         3.940445         2.400310
 O         1.055957         2.892040         1.357910
 C        -0.103544         2.680463         0.602436
 H         0.799504         0.317687         1.398811
 H        -2.358718         2.013207        -0.359488
 H        -2.391212         0.259088         0.153660
 H        -1.897324         0.918531         2.385718
 H        -2.151543         3.660003         1.266346
 H        -1.118827         4.064674         3.540413
 H        -0.362984         2.391351         3.368955
 H         0.814811         4.916799         1.830110
 H         1.586357         3.863114         3.190797
 H         0.128572         3.281511        -0.234377
