19
Iteration:  2131charge 0 multiplicity 1
 O         0.235264         0.133684         0.444527
 C        -0.577981         1.244825         0.725530
 C        -1.964636         0.960882         0.359108
 C        -1.691147         1.616262         1.754829
 C        -1.352611         3.151540         1.534350
 C        -0.661487         3.723454         2.668081
 C         0.844473         3.239696         2.640837
 O         1.087658         3.356262         1.249962
 C        -0.136220         2.729273         0.534746
 H         1.095103         0.404779         0.895298
 H        -2.435788         1.470264        -0.444801
 H        -2.098816        -0.047180         0.258406
 H        -1.746244         1.079431         2.734645
 H        -2.206746         3.821636         1.293634
 H        -0.603517         4.884556         2.698091
 H        -1.203041         3.499914         3.608940
 H         1.601128         3.838463         3.167121
 H         0.958407         2.226998         3.097614
 H         0.093429         3.099682        -0.404882
