19
Iteration:  2843
 O         0.297184         0.234509         0.668946
 C        -0.602928         1.311732         0.517462
 C        -2.035510         1.017163         0.178430
 C        -1.804794         1.547828         1.575407
 C        -1.348877         3.111041         1.561430
 C        -0.503025         3.505277         2.920799
 C         0.982925         3.765527         2.468268
 O         1.032636         2.912426         1.337098
 C        -0.211921         2.764021         0.586244
 H         1.096726         0.443957         1.127260
 H        -2.460388         1.721762        -0.572394
 H        -2.333146        -0.092300         0.310717
 H        -2.483563         0.904013         2.364412
 H        -2.015085         3.948478         1.289696
 H        -0.939467         4.377016         3.397079
 H        -0.431681         2.612287         3.629524
 H         1.256242         4.798507         2.363661
 H         1.681000         3.466368         3.279140
 H        -0.210653         3.293265        -0.351521
