19
Iteration:  3547
 O         0.286170         0.167135         0.408434
 C        -0.552312         1.232897         0.711002
 C        -2.042760         1.147219         0.210767
 C        -1.717275         1.572884         1.617862
 C        -1.304543         3.093079         1.541431
 C        -0.586074         3.560028         2.880014
 C         0.819507         3.898554         2.391351
 O         1.016390         2.811908         1.481448
 C        -0.117544         2.664547         0.723739
 H         1.168722         0.528639         0.701063
 H        -2.347685         1.814595        -0.589847
 H        -2.369461         0.133525         0.249975
 H        -2.177846         1.013987         2.441008
 H        -2.026355         3.932868         1.277657
 H        -1.107417         4.454896         3.257421
 H        -0.406921         2.649936         3.467080
 H         1.027960         4.930196         1.807431
 H         1.474298         3.790405         3.208596
 H         0.081798         3.142176        -0.333945
