19
Iteration:   286charge 0 multiplicity 1
 O         0.115850         0.038273         0.382895
 C        -0.611196         1.172400         0.713599
 C        -1.941322         1.167858         0.186390
 C        -1.766863         1.586562         1.641254
 C        -1.331550         3.028059         1.691240
 C        -0.593116         3.624701         2.919233
 C         0.859098         4.002965         2.321347
 O         1.200866         2.928372         1.403027
 C        -0.080653         2.634492         0.705260
 H         0.757977        -0.139250         1.039531
 H        -2.203871         1.817504        -0.611755
 H        -2.297182         0.178057         0.086715
 H        -2.474347         1.167510         2.441209
 H        -1.987078         3.713925         1.266524
 H        -1.089162         4.390847         3.504184
 H        -0.403047         2.846855         3.661075
 H         0.861372         4.926325         1.721228
 H         1.576400         4.095315         3.086046
 H        -0.070509         3.021018        -0.275445
