19
Iteration:  2047
 O         0.432446         0.397153         0.522773
 C        -0.613295         1.269312         0.592723
 C        -1.984270         0.850168         0.384911
 C        -1.795204         1.688430         1.633895
 C        -1.389439         3.254972         1.537714
 C        -0.605591         3.724377         2.853322
 C         0.825521         3.333131         2.659747
 O         1.060149         2.864345         1.210473
 C        -0.207608         2.756690         0.534037
 H         1.218366         0.880310         0.620195
 H        -2.490314         1.373399        -0.553706
 H        -2.153895        -0.143732         0.583352
 H        -1.958735         1.217430         2.594670
 H        -2.092062         3.978658         1.085769
 H        -0.667196         4.752275         2.807747
 H        -0.913748         3.407998         3.851806
 H         1.574302         4.090021         2.711973
 H         1.078307         2.496324         3.329218
 H        -0.090381         3.336062        -0.490359
