19
Iteration:  3760
 O         0.226655         0.096904         0.575972
 C        -0.579015         1.337029         0.609921
 C        -2.007980         1.118640         0.172533
 C        -1.708092         1.590713         1.613245
 C        -1.352585         3.018647         1.617428
 C        -0.582251         3.488799         2.899165
 C         0.828773         3.833518         2.462155
 O         1.143032         2.934908         1.346715
 C        -0.138460         2.798079         0.574029
 H         0.962187         0.031359         1.218554
 H        -2.450244         1.818764        -0.453579
 H        -2.413166         0.126615         0.312028
 H        -1.862584         0.981388         2.506865
 H        -2.144234         3.697932         1.259284
 H        -1.149536         4.340462         3.184055
 H        -0.614073         2.570277         3.515386
 H         0.949319         4.844463         2.033461
 H         1.550588         3.489084         3.269834
 H        -0.116661         3.460043        -0.358594
