19
Iteration:  3556charge 0 multiplicity 1
 O         0.238866         0.164375         0.414633
 C        -0.599385         1.217506         0.661864
 C        -1.975918         1.096837         0.203864
 C        -1.719397         1.546237         1.639967
 C        -1.273941         3.105455         1.616607
 C        -0.599049         3.593146         2.849948
 C         0.817372         3.869091         2.407808
 O         1.067176         2.862634         1.522253
 C        -0.113905         2.698812         0.621338
 H         1.117160         0.396891         0.819802
 H        -2.527212         1.834976        -0.391915
 H        -2.475569         0.115101         0.003945
 H        -2.157046         1.194786         2.537807
 H        -1.963636         3.747220         1.038823
 H        -1.169544         4.274956         3.483423
 H        -0.600258         2.737288         3.526389
 H         0.823251         4.888730         1.903955
 H         1.652027         3.804181         3.094809
 H         0.124387         3.137690        -0.385750
