19
Iteration:  2714charge 0 multiplicity 1
 O         0.214454         0.042503         0.410479
 C        -0.555572         1.197030         0.679375
 C        -2.056134         1.201874         0.247702
 C        -1.714697         1.577424         1.615113
 C        -1.214312         3.032240         1.646428
 C        -0.627773         3.533173         2.899842
 C         0.769662         3.977395         2.369829
 O         1.101202         2.916669         1.422043
 C        -0.069842         2.666360         0.644334
 H         0.973148         0.074192         1.005056
 H        -2.374009         2.084732        -0.406506
 H        -2.601782         0.251619        -0.115581
 H        -2.062185         0.943285         2.523851
 H        -1.851092         3.847064         1.298813
 H        -1.050241         4.405635         3.342406
 H        -0.443914         2.841020         3.692689
 H         0.663085         5.003342         1.948400
 H         1.497124         3.908010         3.188080
 H        -0.026212         3.153670        -0.395519
