19
Iteration:  4695
 O         0.271613         0.190079         0.390416
 C        -0.563113         1.254264         0.680519
 C        -1.935099         1.169320         0.230575
 C        -1.827511         1.545558         1.645588
 C        -1.345891         3.037919         1.626203
 C        -0.636011         3.486478         2.937382
 C         0.832935         3.840437         2.418165
 O         1.147016         2.876712         1.400470
 C        -0.161016         2.706885         0.634621
 H         1.193893         0.469045         0.628401
 H        -2.358374         1.967407        -0.406748
 H        -2.246443         0.114854         0.052678
 H        -2.303045         1.124148         2.468145
 H        -2.073364         3.834344         1.285815
 H        -1.087390         4.472890         3.333453
 H        -0.375618         2.784155         3.722960
 H         0.834711         4.884926         2.011398
 H         1.644023         3.812714         3.231208
 H        -0.148551         3.063288        -0.423966
