19
Iteration:  4131
 O         0.222254         0.227625         0.552441
 C        -0.613988         1.256530         0.606655
 C        -2.041424         1.087322         0.192315
 C        -1.728291         1.513615         1.662354
 C        -1.305569         3.004243         1.637262
 C        -0.565137         3.616799         2.887563
 C         0.826439         3.833382         2.483907
 O         1.149747         2.849466         1.376422
 C        -0.109130         2.753558         0.593879
 H         0.964729         0.518595         0.027311
 H        -2.256068         1.817171        -0.585000
 H        -2.234555         0.015292         0.036363
 H        -2.210947         0.945897         2.414377
 H        -2.070478         3.694119         1.390624
 H        -1.143107         4.517783         3.094317
 H        -0.752861         2.942293         3.748454
 H         0.946379         4.785569         2.014019
 H         1.500863         3.477563         3.254533
 H        -0.098988         3.356993        -0.381570
