19
Iteration:  4277charge 0 multiplicity 1
 O         0.226864         0.117861         0.668685
 C        -0.640849         1.172042         0.581616
 C        -2.000384         1.215302         0.030741
 C        -1.736044         1.479534         1.639989
 C        -1.225184         3.040701         1.644959
 C        -0.507440         3.485552         3.010168
 C         0.822478         3.948310         2.404246
 O         1.064182         2.952519         1.371791
 C        -0.150636         2.721694         0.637843
 H         0.841122         0.101782        -0.123469
 H        -2.362160         2.034801        -0.473651
 H        -2.542678         0.296469        -0.168787
 H        -2.128241         0.829372         2.487363
 H        -2.032959         3.656911         1.339791
 H        -1.103083         4.354210         3.445345
 H        -0.148315         2.563223         3.486368
 H         0.591361         4.977208         1.930422
 H         1.789786         4.050313         2.995356
 H        -0.155008         3.341102        -0.314102
