19
Iteration:  4339
 O         0.327134         0.178049         0.538522
 C        -0.587218         1.228149         0.609640
 C        -2.095178         1.197110         0.199040
 C        -1.728255         1.586440         1.605258
 C        -1.311560         3.023860         1.599699
 C        -0.583742         3.442256         2.924588
 C         0.848890         3.856322         2.411459
 O         1.104373         2.990803         1.337140
 C        -0.110927         2.700908         0.625678
 H         0.778082        -0.006052         1.401118
 H        -2.667801         1.809514        -0.569637
 H        -2.462686         0.144167         0.327718
 H        -2.273599         0.989447         2.392830
 H        -2.087949         3.825584         1.389707
 H        -1.069391         4.113955         3.622343
 H        -0.603020         2.531494         3.589837
 H         0.858487         4.869970         1.987072
 H         1.659370         3.569224         3.144085
 H        -0.062988         3.129724        -0.371733
