19
Iteration:  2710charge 0 multiplicity 1
 O         0.219185         0.050419         0.400358
 C        -0.556490         1.202086         0.670814
 C        -2.063417         1.180001         0.242307
 C        -1.769082         1.567363         1.613611
 C        -1.214589         3.049802         1.665429
 C        -0.590265         3.547649         2.889336
 C         0.754521         3.942342         2.367582
 O         1.110940         2.918925         1.418514
 C        -0.042430         2.678031         0.669844
 H         1.007436         0.121235         1.028317
 H        -2.347734         2.032056        -0.363741
 H        -2.528559         0.276197         0.058040
 H        -2.082893         0.926635         2.388910
 H        -1.946257         3.799605         1.265835
 H        -1.136456         4.437210         3.276696
 H        -0.527992         2.785861         3.682244
 H         0.702987         4.987255         1.843880
 H         1.533836         4.017265         3.183853
 H        -0.024191         3.184910        -0.259916
