19
Iteration:   153
 O         0.241090         0.190903         0.534428
 C        -0.589209         1.285425         0.762340
 C        -1.975653         1.143424         0.284771
 C        -1.556858         1.622485         1.765711
 C        -1.338601         3.109403         1.516567
 C        -0.664020         3.642963         2.753810
 C         0.854661         3.462912         2.471431
 O         1.081356         2.973267         1.219366
 C        -0.200435         2.778073         0.565121
 H         0.935812         0.165160         1.357943
 H        -2.482978         1.869467        -0.385567
 H        -2.256569         0.026611         0.137511
 H        -1.816132         1.097224         2.636759
 H        -2.175376         3.647822         1.203478
 H        -0.827022         4.771940         2.842385
 H        -1.034888         3.198790         3.710832
 H         1.406765         4.270105         2.790330
 H         1.217091         2.757564         3.285964
 H        -0.333320         3.131796        -0.452397
