19
Iteration:  4185
 O         0.233630         0.200405         0.611818
 C        -0.568037         1.314547         0.663157
 C        -2.016232         1.168798         0.162213
 C        -1.687718         1.510198         1.631386
 C        -1.350395         2.993987         1.621849
 C        -0.628825         3.584934         2.929118
 C         0.815759         3.742702         2.457924
 O         1.132422         2.964642         1.296169
 C        -0.062765         2.686573         0.646339
 H         0.373051         0.131700        -0.326978
 H        -2.763398         1.821280        -0.346867
 H        -2.187511         0.124643        -0.082528
 H        -1.773089         0.922482         2.492175
 H        -2.095378         3.683667         1.232331
 H        -1.119526         4.507386         3.089382
 H        -0.823500         2.859684         3.710483
 H         1.097182         4.747250         2.197308
 H         1.620768         3.485484         3.151598
 H        -0.052552         3.150741        -0.344685
