19
Iteration:  4132
 O         0.229138         0.217256         0.552933
 C        -0.611129         1.263702         0.606040
 C        -2.043477         1.090288         0.189130
 C        -1.732264         1.506857         1.661964
 C        -1.302288         3.017654         1.649469
 C        -0.570538         3.620696         2.891884
 C         0.819007         3.827230         2.481895
 O         1.153080         2.851972         1.375563
 C        -0.112584         2.749285         0.585700
 H         0.959171         0.503720         0.021344
 H        -2.286904         1.774149        -0.587918
 H        -2.245420         0.051401         0.021844
 H        -2.186586         0.934930         2.416345
 H        -2.059706         3.699650         1.404119
 H        -1.144414         4.551309         3.077305
 H        -0.758980         2.924432         3.752946
 H         0.968886         4.805843         2.005119
 H         1.521695         3.472046         3.269219
 H        -0.092225         3.356320        -0.386664
