19
Iteration:  2504
 O         0.459004         0.426405         0.587960
 C        -0.618914         1.296857         0.693175
 C        -1.965215         0.985387         0.412396
 C        -1.750868         1.723746         1.706065
 C        -1.382901         3.152023         1.507302
 C        -0.627114         3.709661         2.708646
 C         0.767857         3.074439         2.646126
 O         1.081522         2.998239         1.090530
 C        -0.192179         2.770229         0.542571
 H         1.206381         1.057524         0.944970
 H        -2.598499         1.467220        -0.395057
 H        -2.289429        -0.167609         0.636314
 H        -2.015840         1.226140         2.634154
 H        -2.195885         3.817699         1.285278
 H        -0.670881         4.793641         2.778826
 H        -1.021405         3.419791         3.695209
 H         1.564125         3.693886         2.980210
 H         0.903751         2.081373         3.068991
 H        -0.145075         3.372439        -0.456572
