19
Iteration:  2893
 O         0.310385         0.097169         0.517715
 C        -0.602689         1.244558         0.634605
 C        -2.051526         1.259476         0.214635
 C        -1.762114         1.580401         1.660642
 C        -1.314111         2.974711         1.632419
 C        -0.582997         3.547528         2.825625
 C         0.837174         3.812577         2.455926
 O         1.058521         2.964692         1.333691
 C        -0.074160         2.662279         0.600865
 H         1.011200         0.172707         1.217494
 H        -2.374780         2.075923        -0.384784
 H        -2.389611         0.215307         0.102754
 H        -2.079370         1.256615         2.587950
 H        -2.140618         3.605531         1.226275
 H        -1.108239         4.406661         3.316082
 H        -0.473766         2.690688         3.523943
 H         0.946771         4.916446         2.258329
 H         1.563059         3.565042         3.251437
 H        -0.101791         3.216482        -0.389233
