19
Iteration:  3226charge 0 multiplicity 1
 O         0.307118         0.243948         0.542363
 C        -0.614624         1.303697         0.568014
 C        -2.069540         1.076038         0.232845
 C        -1.702364         1.589848         1.610764
 C        -1.241882         3.108311         1.653344
 C        -0.584921         3.565961         2.869832
 C         0.777810         3.791030         2.429266
 O         1.099089         2.747952         1.399390
 C        -0.149251         2.738737         0.602887
 H         1.138486         0.433173         0.966716
 H        -2.468090         1.602128        -0.585495
 H        -2.321125        -0.044348         0.242830
 H        -2.050659         0.916238         2.422105
 H        -1.938929         3.946619         1.336207
 H        -1.035864         4.509161         3.229351
 H        -0.932265         2.899743         3.752392
 H         0.652864         4.660665         1.741131
 H         1.608373         3.857184         3.124610
 H         0.017298         3.353977        -0.265382
