19
Iteration:  3006charge 0 multiplicity 1
 O         0.222454         0.056193         0.517262
 C        -0.586658         1.276329         0.562052
 C        -1.975139         1.030528         0.199511
 C        -1.669223         1.613510         1.606027
 C        -1.332350         3.141474         1.667344
 C        -0.621254         3.653284         2.879484
 C         0.866864         3.760467         2.477419
 O         1.081384         2.874010         1.375417
 C        -0.201850         2.800601         0.590967
 H         0.967523         0.483952         1.030527
 H        -2.512501         1.574593        -0.531565
 H        -2.025915         0.022085         0.197112
 H        -1.908862         0.918919         2.452779
 H        -2.135807         3.874223         1.481281
 H        -0.962005         4.627413         3.181955
 H        -0.603917         2.821051         3.701813
 H         1.247794         4.760549         2.271417
 H         1.635051         3.419738         3.170211
 H        -0.182817         3.389123        -0.401002
