19
Iteration:  4514
 O         0.307759         0.165649         0.510910
 C        -0.544685         1.285865         0.718870
 C        -1.972451         1.195516         0.109345
 C        -1.819618         1.570001         1.602181
 C        -1.324534         3.015180         1.683044
 C        -0.598776         3.478462         2.974344
 C         0.772203         3.942597         2.347353
 O         1.107239         2.869808         1.372105
 C        -0.094705         2.678200         0.759934
 H         0.165042        -0.178686        -0.362955
 H        -2.124210         1.954835        -0.676629
 H        -2.412298         0.229250        -0.134641
 H        -1.886278         0.943475         2.442670
 H        -2.116311         3.690254         1.267655
 H        -1.018616         4.299085         3.457355
 H        -0.401975         2.669382         3.680999
 H         0.749594         4.922884         1.821706
 H         1.670180         3.985375         2.972318
 H        -0.120879         3.020284        -0.289932
