19
Iteration:  4106
 O         0.340720         0.174964         0.500481
 C        -0.559332         1.246129         0.639984
 C        -2.087150         1.155052         0.219975
 C        -1.780519         1.555803         1.634045
 C        -1.326836         3.131241         1.625214
 C        -0.586614         3.551456         2.875877
 C         0.837056         3.836625         2.391404
 O         1.092740         2.839810         1.428691
 C        -0.140170         2.698754         0.616348
 H         1.205717         0.526520         0.717611
 H        -2.626372         1.870572        -0.519026
 H        -2.260357         0.041439         0.108585
 H        -2.000536         0.883008         2.530237
 H        -2.032070         3.960513         1.301175
 H        -1.138783         4.271435         3.454986
 H        -0.638687         2.672979         3.473616
 H         0.935675         4.771316         1.916270
 H         1.525354         3.581751         3.131592
 H        -0.031873         3.174800        -0.378598
