19
Iteration:  1038charge 0 multiplicity 1
 O         0.286907         0.230717         0.581247
 C        -0.546413         1.302730         0.700675
 C        -2.055128         1.091720         0.256576
 C        -1.628557         1.543696         1.721000
 C        -1.328121         3.059452         1.538520
 C        -0.646887         3.780081         2.746018
 C         0.832812         3.278287         2.540308
 O         1.078183         3.136891         1.189918
 C        -0.132708         2.712144         0.631291
 H         1.043339         0.415846         1.254627
 H        -2.513554         1.858374        -0.398819
 H        -2.474518         0.129291         0.231886
 H        -1.939525         1.016959         2.563125
 H        -2.129807         3.717889         1.100607
 H        -0.835123         4.904013         2.573287
 H        -1.130516         3.543575         3.662169
 H         1.447386         4.012579         3.064723
 H         0.951385         2.277788         3.090357
 H        -0.046851         3.126609        -0.464867
