19
Iteration:  3767
 O         0.213112         0.113287         0.574872
 C        -0.592828         1.293114         0.596289
 C        -2.068964         1.120671         0.218628
 C        -1.677009         1.554343         1.576238
 C        -1.348215         3.054976         1.630935
 C        -0.572115         3.494504         2.874008
 C         0.856426         3.834778         2.449673
 O         1.063624         2.943302         1.389859
 C        -0.041157         2.783825         0.552679
 H         0.929371         0.213798         1.213949
 H        -2.539332         1.641484        -0.694667
 H        -2.386231         0.063521        -0.039052
 H        -1.667838         1.039448         2.502554
 H        -2.249852         3.686294         1.355449
 H        -1.127165         4.344567         3.403271
 H        -0.455703         2.633738         3.613243
 H         0.947574         4.923137         2.222530
 H         1.559802         3.662436         3.206291
 H         0.035502         3.345089        -0.367548
