19
Iteration:  3094charge 0 multiplicity 1
 O         0.298341         0.223104         0.620713
 C        -0.649433         1.248085         0.596105
 C        -1.981873         1.097724         0.127812
 C        -1.838385         1.562651         1.536347
 C        -1.364453         3.026992         1.686027
 C        -0.529316         3.553177         2.993968
 C         0.923966         3.832203         2.348857
 O         1.087501         2.831181         1.309135
 C        -0.145532         2.774645         0.660347
 H         0.874266         0.424464         1.351698
 H        -2.400113         1.717201        -0.627228
 H        -2.263542         0.107620         0.127490
 H        -2.171657         0.861105         2.242200
 H        -2.188433         3.727192         1.386646
 H        -0.967816         4.465619         3.386351
 H        -0.546726         2.627160         3.760194
 H         0.948974         4.872917         1.999430
 H         1.801832         3.864870         3.018898
 H        -0.090411         3.407316        -0.283825
