19
Iteration:   209charge 0 multiplicity 1
 O         0.325821         0.377586         0.543543
 C        -0.669773         1.293378         0.580220
 C        -2.025926         1.001543         0.270389
 C        -1.783385         1.601469         1.681544
 C        -1.367187         3.102760         1.592237
 C        -0.594937         3.740627         2.806608
 C         0.975066         3.624592         2.474653
 O         1.083509         2.694710         1.321033
 C        -0.139944         2.726974         0.594239
 H         0.999624         0.755670         1.267322
 H        -2.575058         1.586443        -0.476276
 H        -2.274055        -0.038807         0.303084
 H        -2.178666         1.005685         2.543881
 H        -2.183080         3.672855         1.299847
 H        -0.850525         4.806964         2.950502
 H        -0.805154         3.173492         3.722315
 H         1.418201         4.525138         2.218026
 H         1.427805         3.158129         3.339591
 H        -0.104595         3.193287        -0.371248
