19
Iteration:   293charge 0 multiplicity 1
 O         0.158333        -0.014476         0.400418
 C        -0.536988         1.181364         0.711135
 C        -1.977059         1.245417         0.197265
 C        -1.775881         1.606053         1.616372
 C        -1.280287         3.060743         1.713878
 C        -0.569993         3.636294         2.948098
 C         0.809464         4.017727         2.300372
 O         1.111663         2.900883         1.425261
 C        -0.092114         2.583392         0.669314
 H         0.783200        -0.136190         1.058867
 H        -2.322399         1.976565        -0.632332
 H        -2.250756         0.200444         0.000558
 H        -2.348918         1.020990         2.302487
 H        -2.233652         3.700633         1.434705
 H        -1.018694         4.433756         3.559835
 H        -0.203927         2.741588         3.497698
 H         0.857362         4.989390         1.640491
 H         1.639003         4.061962         3.111012
 H         0.001610         2.944738        -0.424239
