19
Iteration:  2043
 O         0.434462         0.394714         0.509639
 C        -0.620735         1.278419         0.637551
 C        -1.987941         0.856326         0.401769
 C        -1.754280         1.696060         1.593678
 C        -1.358976         3.278105         1.535374
 C        -0.629658         3.707902         2.882133
 C         0.839635         3.302664         2.645900
 O         1.009230         2.848697         1.188651
 C        -0.171335         2.785126         0.532824
 H         1.268635         1.000627         0.652879
 H        -2.431691         1.234375        -0.438521
 H        -2.177844        -0.281419         0.547906
 H        -2.045051         1.217472         2.639269
 H        -2.071800         4.071057         1.143269
 H        -0.815712         4.889780         2.756997
 H        -1.118904         3.439618         3.854225
 H         1.624615         4.094854         2.706063
 H         1.115212         2.502612         3.326545
 H        -0.098457         3.178928        -0.484901
