19
Iteration:  4249charge 0 multiplicity 1
 O         0.289147         0.154999         0.653123
 C        -0.586437         1.293432         0.674296
 C        -2.010564         1.200750         0.094846
 C        -1.783734         1.554889         1.618014
 C        -1.329415         3.001391         1.690520
 C        -0.580455         3.416977         2.873941
 C         0.786060         3.870895         2.361894
 O         1.186140         2.895629         1.331773
 C        -0.108379         2.775109         0.674172
 H         0.377285        -0.171905        -0.262730
 H        -2.492200         2.078407        -0.546877
 H        -2.423687         0.187463         0.124809
 H        -1.979084         1.013837         2.498485
 H        -2.246164         3.653096         1.398800
 H        -1.094917         4.249020         3.303470
 H        -0.194075         2.694660         3.582822
 H         0.648870         4.885342         1.893022
 H         1.461317         3.829076         3.173016
 H        -0.148341         3.500464        -0.132192
