19
Iteration:   985charge 0 multiplicity 1
 O         0.338763         0.274608         0.666590
 C        -0.600745         1.322019         0.702048
 C        -1.951586         1.077497         0.230393
 C        -1.716708         1.648073         1.699640
 C        -1.373413         3.120989         1.570845
 C        -0.614106         3.714503         2.847145
 C         0.831287         3.356526         2.575823
 O         1.063155         2.947706         1.139376
 C        -0.193120         2.698000         0.469273
 H         1.162500         0.748860         0.934397
 H        -2.434679         1.690245        -0.687846
 H        -2.170247         0.017154         0.181416
 H        -1.950766         1.083631         2.550137
 H        -2.140526         3.854001         1.265889
 H        -0.957557         4.785652         3.080873
 H        -0.939023         3.221608         3.776235
 H         1.485577         4.224191         2.799438
 H         1.212721         2.481975         3.168938
 H        -0.129218         3.182167        -0.477436
