19
Iteration:  4246
 O         0.299891         0.144264         0.640944
 C        -0.619201         1.292738         0.659528
 C        -1.983065         1.187110         0.098964
 C        -1.769006         1.557399         1.635041
 C        -1.309817         3.036348         1.672359
 C        -0.570371         3.431509         2.876061
 C         0.792883         3.850290         2.367438
 O         1.175889         2.900701         1.340135
 C        -0.131724         2.776823         0.651803
 H         0.372330        -0.211684        -0.240890
 H        -2.394545         1.992914        -0.476660
 H        -2.464935         0.211245         0.135464
 H        -2.085455         1.025440         2.565711
 H        -2.177754         3.641424         1.378050
 H        -1.156128         4.191458         3.452139
 H        -0.381524         2.704735         3.655983
 H         0.538812         4.796052         1.959425
 H         1.539286         3.865825         3.131762
 H        -0.158482         3.568204        -0.152132
