19
Iteration:  1576
 O         0.446330         0.345051         0.558148
 C        -0.609484         1.275303         0.730351
 C        -2.012537         0.862803         0.316129
 C        -1.803926         1.711666         1.677407
 C        -1.348640         3.128670         1.551474
 C        -0.530674         3.765700         2.709310
 C         0.845491         3.146376         2.627984
 O         1.017414         3.090756         1.205526
 C        -0.218363         2.765141         0.558455
 H         1.272252         0.747706         0.569156
 H        -2.612766         1.360396        -0.389502
 H        -2.157517        -0.253510         0.482939
 H        -2.386459         1.426211         2.610886
 H        -2.118250         3.852197         1.121475
 H        -0.348082         4.836032         2.377916
 H        -1.055666         3.774495         3.760578
 H         1.410436         4.009832         2.931922
 H         0.988291         2.297395         3.283084
 H        -0.122967         3.209601        -0.390038
