19
Iteration:  1983charge 0 multiplicity 1
 O         0.329782         0.223685         0.636617
 C        -0.547629         1.244299         0.633417
 C        -1.961354         1.069782         0.294353
 C        -1.563349         1.534583         1.725811
 C        -1.384039         3.058157         1.579003
 C        -0.506214         3.857771         2.688564
 C         0.737692         3.157938         2.629037
 O         0.989426         3.216374         1.182794
 C        -0.254728         2.781279         0.594419
 H         1.106745         0.708079         0.486559
 H        -2.402062         1.784585        -0.522298
 H        -2.314869         0.096749         0.312318
 H        -1.889162         0.848667         2.459321
 H        -2.185636         3.691526         1.255440
 H        -0.423854         4.870228         2.399016
 H        -0.865866         3.728006         3.717363
 H         1.577406         3.586506         3.159795
 H         0.536735         2.076090         2.933552
 H        -0.341379         3.228665        -0.411541
