19
Iteration:  4096
 O         0.388347         0.154056         0.476998
 C        -0.647362         1.220828         0.607088
 C        -2.048986         1.120107         0.259424
 C        -1.739593         1.647435         1.610549
 C        -1.315559         3.112698         1.636568
 C        -0.590012         3.556771         2.966911
 C         0.753370         3.828057         2.410404
 O         1.098451         2.788215         1.359042
 C        -0.118071         2.739055         0.566256
 H         0.969766         0.333639         1.226065
 H        -2.281845         1.897525        -0.550858
 H        -2.481559         0.082155         0.042540
 H        -2.153986         1.019181         2.459200
 H        -2.120492         3.827845         1.423000
 H        -0.990806         4.400930         3.508983
 H        -0.410380         2.760570         3.678980
 H         0.786470         4.823797         2.043938
 H         1.467776         3.924075         3.169651
 H         0.052998         3.240979        -0.434404
