19
Iteration:  2391charge 0 multiplicity 1
 O         0.233952         0.086654         0.509599
 C        -0.539414         1.258714         0.739613
 C        -1.954186         1.056093         0.358694
 C        -1.658426         1.592504         1.699634
 C        -1.303905         3.170249         1.528515
 C        -0.704545         3.692837         2.811667
 C         0.839821         3.406911         2.594183
 O         1.090253         3.206614         1.189212
 C        -0.191464         2.740446         0.532145
 H         1.127222         0.200403         0.763558
 H        -2.457192         1.781724        -0.432591
 H        -2.252051         0.027312         0.279622
 H        -1.621420         0.919231         2.522024
 H        -2.134230         3.740999         1.080832
 H        -0.873499         4.754992         2.908090
 H        -1.065230         3.245629         3.696633
 H         1.669308         4.112335         2.941470
 H         0.881717         2.468894         3.093093
 H        -0.168647         3.148258        -0.576963
