19
Iteration:   890
 O         0.404249         0.273912         0.653948
 C        -0.583573         1.224334         0.711789
 C        -2.101390         1.130357         0.285946
 C        -1.636105         1.597540         1.751961
 C        -1.309276         3.098355         1.506572
 C        -0.610276         3.804596         2.692171
 C         0.777892         3.140854         2.577995
 O         1.052722         3.148193         1.187905
 C        -0.178861         2.725416         0.581150
 H         1.278822         0.710929         0.600118
 H        -2.442630         1.729868        -0.513690
 H        -2.621522         0.241244         0.256176
 H        -2.106002         1.184727         2.631562
 H        -2.133895         3.547308         0.971194
 H        -0.476824         4.855987         2.640592
 H        -1.065357         3.588884         3.708457
 H         1.590661         3.723767         3.097364
 H         0.658717         2.134321         3.011225
 H        -0.140656         2.976819        -0.528550
