19
Iteration:  2649charge 0 multiplicity 1
 O         0.374310         0.251954         0.540329
 C        -0.588288         1.264691         0.525968
 C        -2.037561         1.148640         0.328268
 C        -1.625659         1.605041         1.609457
 C        -1.347705         3.107977         1.664414
 C        -0.642006         3.591441         2.882792
 C         0.836843         3.748587         2.370403
 O         1.069385         2.703547         1.367550
 C        -0.189693         2.717701         0.599658
 H         1.098868         0.587524         1.177443
 H        -2.564756         1.958896        -0.320413
 H        -2.503733         0.182539        -0.003370
 H        -2.071429         1.037703         2.533765
 H        -2.188187         3.742874         1.345913
 H        -1.161724         4.572464         3.086096
 H        -0.837085         2.952027         3.819975
 H         1.060507         4.654218         1.824289
 H         1.473480         3.552007         3.228725
 H        -0.120124         3.347481        -0.357189
