19
Iteration:  3196
 O         0.279236         0.139601         0.532925
 C        -0.581782         1.221246         0.630812
 C        -2.020060         1.194254         0.185067
 C        -1.672087         1.494585         1.626166
 C        -1.356559         3.088967         1.644302
 C        -0.581777         3.594709         2.795072
 C         0.870653         3.859063         2.428449
 O         1.046331         2.887823         1.408873
 C        -0.184068         2.720782         0.653650
 H         0.908538        -0.071705         1.284468
 H        -2.155907         2.052721        -0.493668
 H        -2.496965         0.214830         0.107297
 H        -1.795422         0.665436         2.394341
 H        -2.109458         3.804423         1.269141
 H        -1.091772         4.481034         3.335661
 H        -0.515357         2.599976         3.338697
 H         1.015217         4.908304         1.948279
 H         1.602414         3.665447         3.190200
 H        -0.115320         3.250388        -0.369733
