19
Iteration:  4316charge 0 multiplicity 1
 O         0.167927         0.109237         0.547136
 C        -0.617836         1.254766         0.680924
 C        -1.921280         1.166104         0.114141
 C        -1.824385         1.517888         1.661043
 C        -1.313954         2.975493         1.602391
 C        -0.500445         3.456984         2.940479
 C         0.825145         3.934093         2.439502
 O         1.128336         2.998886         1.292453
 C        -0.114841         2.717621         0.663154
 H         1.091769         0.399723         0.626753
 H        -2.388462         2.094414        -0.437421
 H        -2.254963         0.128225        -0.152598
 H        -2.112640         1.027505         2.611554
 H        -1.985349         3.818473         1.183099
 H        -0.924852         4.183458         3.614726
 H        -0.518501         2.604284         3.669483
 H         0.648406         4.906331         1.986084
 H         1.590710         3.757540         3.226945
 H        -0.127147         3.165169        -0.347344
