19
Iteration:  4092
 O         0.379213         0.165526         0.476094
 C        -0.633279         1.225807         0.597210
 C        -2.027975         1.107758         0.230983
 C        -1.714227         1.671779         1.618459
 C        -1.307457         3.083801         1.645392
 C        -0.604266         3.524372         2.996905
 C         0.761342         3.839001         2.416325
 O         1.081138         2.791939         1.343812
 C        -0.122751         2.728314         0.571066
 H         0.801670         0.277284         1.385379
 H        -2.292451         1.823684        -0.571837
 H        -2.588665         0.211360         0.118913
 H        -2.182161         1.193179         2.478265
 H        -2.185514         3.765496         1.306323
 H        -0.928909         4.524434         3.412841
 H        -0.403604         2.743379         3.730143
 H         0.722973         4.841025         1.912377
 H         1.597066         3.945103         3.164627
 H         0.030967         3.270303        -0.341900
