19
Iteration:   205charge 0 multiplicity 1
 O         0.322954         0.405947         0.540758
 C        -0.679220         1.243874         0.586080
 C        -2.054446         0.970361         0.258690
 C        -1.789666         1.587755         1.660851
 C        -1.349139         3.098132         1.610173
 C        -0.573148         3.758298         2.766878
 C         0.992490         3.615919         2.509032
 O         1.110238         2.710595         1.325999
 C        -0.178283         2.731699         0.627318
 H         0.948780         0.873837         1.138174
 H        -2.523688         1.579149        -0.581345
 H        -2.412282        -0.126762         0.380637
 H        -2.145055         1.039436         2.478640
 H        -2.201524         3.833329         1.244829
 H        -0.833719         4.824576         2.904979
 H        -0.780569         3.082414         3.628113
 H         1.432918         4.644410         2.214289
 H         1.422482         3.184711         3.502093
 H        -0.109841         3.217915        -0.375960
