19
Iteration:  2161charge 0 multiplicity 1
 O         0.417509         0.266526         0.587426
 C        -0.577652         1.271146         0.595734
 C        -2.005794         1.048322         0.361776
 C        -1.663396         1.685639         1.703061
 C        -1.304399         3.142393         1.578732
 C        -0.703663         3.650936         2.791400
 C         0.782768         3.269346         2.569037
 O         1.085438         3.013285         1.180885
 C        -0.236736         2.794521         0.486781
 H         1.145788         0.710865         1.123330
 H        -2.595712         1.641803        -0.337579
 H        -2.380746        -0.102304         0.465998
 H        -1.830551         1.112560         2.700709
 H        -2.093414         3.844246         1.331708
 H        -0.680469         4.773338         2.768480
 H        -1.186541         3.237204         3.669538
 H         1.335334         4.236725         2.799202
 H         1.106347         2.423249         3.220661
 H        -0.206754         3.396471        -0.449255
