19
Iteration:   733charge 0 multiplicity 1
 O         0.279084         0.227236         0.604952
 C        -0.570278         1.256060         0.788314
 C        -2.019512         1.125797         0.348669
 C        -1.659821         1.669327         1.677267
 C        -1.322722         3.132460         1.472121
 C        -0.673402         3.639495         2.737419
 C         0.797790         3.193438         2.568588
 O         1.082612         3.236161         1.148202
 C        -0.072220         2.693372         0.554706
 H         1.061591         0.479386         1.003967
 H        -2.563247         1.766759        -0.472520
 H        -2.410298         0.074092         0.411535
 H        -1.882041         1.171115         2.655670
 H        -2.270473         3.626592         1.175951
 H        -0.630171         4.817398         2.851920
 H        -1.112099         3.300021         3.678779
 H         1.549871         3.806918         3.105982
 H         0.903100         2.156919         2.936341
 H        -0.039456         2.976284        -0.535910
