19
Iteration:   333
 O         0.177079         0.161695         0.606735
 C        -0.647895         1.307717         0.606307
 C        -2.064856         1.268110         0.141741
 C        -1.753516         1.497487         1.581717
 C        -1.336370         2.989203         1.737572
 C        -0.530044         3.578693         2.905480
 C         0.769762         3.935296         2.256721
 O         1.203482         2.801559         1.384699
 C        -0.007518         2.633229         0.666080
 H         0.996987         0.332280         1.217896
 H        -2.649883         1.929886        -0.492129
 H        -2.316581         0.177219         0.058922
 H        -2.036584         0.785537         2.313367
 H        -2.005142         3.756311         1.360443
 H        -1.094475         4.424263         3.417046
 H        -0.346407         2.789846         3.677274
 H         0.675557         4.813220         1.709656
 H         1.570771         3.964052         3.021695
 H         0.112109         3.186320        -0.258277
