19
Iteration:  1620charge 0 multiplicity 1
 O         0.354759         0.289287         0.716742
 C        -0.559781         1.299801         0.636054
 C        -1.965768         1.132465         0.320596
 C        -1.585641         1.564953         1.751643
 C        -1.380658         3.130901         1.561509
 C        -0.608064         3.647307         2.742322
 C         0.793567         3.273743         2.556155
 O         1.008419         3.006676         1.129286
 C        -0.238872         2.825780         0.462243
 H         1.034912         0.479060         1.398320
 H        -2.452504         1.772578        -0.418924
 H        -2.105270         0.046761         0.174146
 H        -1.873208         1.033749         2.661933
 H        -2.270784         3.761663         1.297838
 H        -0.682613         4.759164         2.517605
 H        -1.104424         3.442976         3.799426
 H         1.513275         4.031412         2.851800
 H         1.021547         2.310688         2.961155
 H        -0.199191         3.229014        -0.516859
