19
Iteration:   413charge 0 multiplicity 1
 O         0.333015         0.318944         0.708826
 C        -0.622574         1.313829         0.607509
 C        -2.077706         1.041840         0.241893
 C        -1.726844         1.607516         1.622993
 C        -1.385580         3.085302         1.590848
 C        -0.586315         3.714756         2.794493
 C         0.931807         3.386356         2.501658
 O         1.084497         2.983269         1.185478
 C        -0.160375         2.719085         0.584700
 H         1.038274         0.795509         1.073539
 H        -2.797964         1.639058        -0.456705
 H        -2.289269        -0.029400         0.352629
 H        -1.820117         1.008839         2.563601
 H        -2.311663         3.754188         1.372744
 H        -0.796602         4.829149         2.845137
 H        -0.868116         3.127128         3.715562
 H         1.660805         4.082251         2.777032
 H         1.200794         2.465272         3.190621
 H        -0.015306         3.170506        -0.444129
