19
Iteration:  4091
 O         0.374663         0.170659         0.478511
 C        -0.623902         1.226172         0.595113
 C        -2.024544         1.108630         0.219077
 C        -1.709149         1.673783         1.622416
 C        -1.307352         3.078991         1.647042
 C        -0.606518         3.517894         3.000366
 C         0.765475         3.841491         2.415665
 O         1.075868         2.795165         1.342477
 C        -0.125273         2.723488         0.576191
 H         0.759270         0.256324         1.398360
 H        -2.304808         1.790313        -0.561084
 H        -2.609450         0.235847         0.148659
 H        -2.178934         1.239532         2.473795
 H        -2.168630         3.736295         1.283632
 H        -0.922299         4.535902         3.386980
 H        -0.420784         2.721838         3.757831
 H         0.706073         4.853638         1.862834
 H         1.641708         3.932306         3.166395
 H         0.018356         3.284277        -0.333855
