19
Iteration:  2707charge 0 multiplicity 1
 O         0.227056         0.064668         0.398980
 C        -0.567799         1.207636         0.652608
 C        -2.054804         1.176330         0.226747
 C        -1.808427         1.561173         1.622771
 C        -1.239357         3.055869         1.666740
 C        -0.548837         3.570540         2.888597
 C         0.752174         3.918286         2.368189
 O         1.128810         2.922723         1.418682
 C        -0.027547         2.680069         0.705084
 H         0.954385         0.150143         0.977253
 H        -2.361380         1.952924        -0.381898
 H        -2.483162         0.164782         0.223341
 H        -2.148365         0.905131         2.358544
 H        -2.034657         3.704453         1.221162
 H        -1.230160         4.458355         3.230706
 H        -0.598793         2.699238         3.701818
 H         0.762049         4.828455         1.789138
 H         1.541591         4.118795         3.087399
 H        -0.006883         3.268142        -0.224911
