19
Iteration:  1780
 O         0.450114         0.311878         0.465742
 C        -0.554999         1.228470         0.672536
 C        -2.057430         1.028427         0.531092
 C        -1.596532         1.693507         1.736686
 C        -1.346278         3.154315         1.513730
 C        -0.624007         3.831875         2.645348
 C         0.744716         3.074300         2.672134
 O         0.997370         3.096836         1.236918
 C        -0.190654         2.712354         0.478502
 H         1.298958         0.753805         0.884685
 H        -2.388519         1.737303        -0.257041
 H        -2.526664         0.069557         0.416561
 H        -1.840651         1.243650         2.657509
 H        -2.252687         3.623196         1.059120
 H        -0.575089         4.864921         2.388471
 H        -1.178151         3.747072         3.519900
 H         1.486773         3.726334         3.239141
 H         0.622271         2.086763         3.119566
 H        -0.149808         3.032394        -0.641402
