19
Iteration:   185
 O         0.472953         0.279768         0.556199
 C        -0.677530         1.227441         0.615821
 C        -2.191461         0.995715         0.235985
 C        -1.835508         1.644287         1.627651
 C        -1.311896         3.126264         1.567611
 C        -0.537046         3.731477         2.855201
 C         0.990218         3.591974         2.516586
 O         1.063081         2.848238         1.363884
 C        -0.209651         2.678717         0.574944
 H         1.193950         0.853569         0.480600
 H        -2.846480         1.510441        -0.543685
 H        -2.397134        -0.136070         0.374969
 H        -2.142666         1.151736         2.503892
 H        -2.110064         3.792119         1.221505
 H        -0.693066         4.842870         2.701162
 H        -0.845007         3.408718         3.879273
 H         1.424382         4.558164         2.442536
 H         1.462538         2.904440         3.310848
 H        -0.195733         3.206170        -0.382572
