19
Iteration:  4266
 O         0.231173         0.187929         0.688243
 C        -0.603291         1.289183         0.621862
 C        -2.067368         1.237988         0.121194
 C        -1.722643         1.433347         1.541522
 C        -1.321164         2.995260         1.686968
 C        -0.513850         3.471725         2.933023
 C         0.856001         3.943400         2.335553
 O         1.105929         2.960593         1.384570
 C        -0.105003         2.653251         0.659900
 H         0.609985        -0.025943        -0.171572
 H        -2.443093         2.016492        -0.442162
 H        -2.266250         0.228108        -0.228238
 H        -2.252458         0.765259         2.281738
 H        -2.034308         3.696452         1.313990
 H        -1.087314         4.091582         3.699560
 H        -0.509385         2.626945         3.657525
 H         0.752939         4.993420         1.881496
 H         1.731153         3.928089         3.062872
 H        -0.014690         3.109084        -0.373549
