19
Iteration:  2738
 O         0.099625         0.027047         0.501311
 C        -0.549949         1.252590         0.632693
 C        -1.931066         1.196903         0.195299
 C        -1.615096         1.516873         1.664536
 C        -1.300682         3.053374         1.630161
 C        -0.597060         3.547369         2.854645
 C         0.816568         3.909824         2.427693
 O         1.059880         2.968307         1.361984
 C        -0.067111         2.726910         0.643916
 H         0.825511         0.179512         1.205261
 H        -2.318375         2.020340        -0.417882
 H        -2.475155         0.231664        -0.034407
 H        -2.033556         0.703914         2.309892
 H        -2.201287         3.610537         1.349596
 H        -1.017342         4.356389         3.500544
 H        -0.465674         2.632033         3.521248
 H         0.705451         4.913279         1.980397
 H         1.552605         3.828290         3.209452
 H        -0.042030         3.243659        -0.391233
