19
Iteration:  1072
 O         0.284650         0.151472         0.533234
 C        -0.513310         1.279441         0.575055
 C        -1.961233         0.990272         0.405138
 C        -1.526400         1.691764         1.707259
 C        -1.347381         3.198834         1.525307
 C        -0.638548         3.823608         2.760159
 C         0.738343         3.110400         2.620399
 O         0.958125         3.161290         1.246501
 C        -0.126321         2.788718         0.501089
 H         1.094660         0.278015         1.166135
 H        -2.680541         1.493151        -0.338113
 H        -2.306124        -0.055211         0.673072
 H        -1.633971         1.230416         2.686484
 H        -2.170463         3.743769         0.966937
 H        -0.392658         4.920422         2.481574
 H        -1.271213         3.694921         3.639381
 H         1.538537         3.714750         3.112488
 H         0.634695         2.094423         3.119920
 H        -0.050067         3.389386        -0.490388
