19
Iteration:  1730charge 0 multiplicity 1
 O         0.401157         0.347644         0.643593
 C        -0.633232         1.224293         0.556759
 C        -2.105076         0.957348         0.281841
 C        -1.657007         1.553595         1.656177
 C        -1.310985         3.139205         1.549443
 C        -0.507461         3.808828         2.721223
 C         0.902917         3.287123         2.662500
 O         0.988641         2.975816         1.237177
 C        -0.270538         2.793574         0.545666
 H         1.023151         0.829266         1.134552
 H        -2.754827         1.324911        -0.596192
 H        -2.205208        -0.072684         0.351852
 H        -1.831402         1.134613         2.611421
 H        -2.118420         3.824748         1.318006
 H        -0.594262         4.906536         2.444867
 H        -1.107431         3.679100         3.723416
 H         1.488054         4.164076         2.707772
 H         1.186602         2.578572         3.475640
 H        -0.196108         3.383914        -0.318175
