19
Iteration:  4696charge 0 multiplicity 1
 O         0.272165         0.185121         0.383485
 C        -0.563850         1.253151         0.689983
 C        -1.930454         1.175607         0.227567
 C        -1.823853         1.552432         1.646645
 C        -1.348988         3.035613         1.629802
 C        -0.634462         3.492885         2.931011
 C         0.832446         3.839843         2.420273
 O         1.143557         2.875880         1.404234
 C        -0.158831         2.706459         0.632229
 H         1.192868         0.459267         0.650030
 H        -2.382706         1.962565        -0.411205
 H        -2.262624         0.099703         0.065437
 H        -2.278747         1.106532         2.433549
 H        -2.076759         3.801506         1.321308
 H        -1.090920         4.462946         3.337734
 H        -0.343615         2.786818         3.722015
 H         0.842160         4.877680         2.005827
 H         1.592275         3.817302         3.218833
 H        -0.157876         3.065076        -0.443058
