19
Iteration:  3207
 O         0.274571         0.185407         0.545904
 C        -0.548389         1.295234         0.597189
 C        -1.971741         1.187940         0.197979
 C        -1.636277         1.575248         1.670007
 C        -1.382065         3.018579         1.572476
 C        -0.594271         3.563401         2.907248
 C         0.861454         3.835921         2.339726
 O         0.997783         2.810940         1.420631
 C        -0.154391         2.707419         0.586725
 H         0.835236         0.219935         1.345006
 H        -2.564544         1.905140        -0.416515
 H        -2.438772         0.237104         0.000454
 H        -1.870946         0.998695         2.616058
 H        -2.170570         3.642921         1.105915
 H        -1.146780         4.352209         3.558684
 H        -0.560726         2.770206         3.748672
 H         1.161021         4.886533         1.914097
 H         1.531678         3.613803         3.150600
 H         0.123436         3.316834        -0.312677
