19
Iteration:  4496
 O         0.286178         0.170901         0.475591
 C        -0.552028         1.208186         0.685567
 C        -1.930940         1.236638         0.189799
 C        -1.719060         1.522847         1.659925
 C        -1.329647         3.014230         1.674103
 C        -0.570691         3.513746         2.861430
 C         0.783467         3.899150         2.349313
 O         1.104036         2.896014         1.457021
 C        -0.113002         2.702369         0.649741
 H         0.022947        -0.300607        -0.303518
 H        -2.338671         1.995511        -0.374200
 H        -2.199503         0.178847        -0.010709
 H        -2.638551         1.126832         2.244843
 H        -2.032447         3.797681         1.375567
 H        -1.199397         4.182490         3.584861
 H        -0.524489         2.694369         3.571752
 H         0.632848         4.887886         1.915143
 H         1.489288         4.022938         3.240005
 H        -0.109701         3.268920        -0.360650
