19
Iteration:   306charge 0 multiplicity 1
 O         0.213190        -0.045001         0.478035
 C        -0.574711         1.163982         0.661090
 C        -1.995214         1.331085         0.155332
 C        -1.725519         1.566854         1.635053
 C        -1.269777         3.049528         1.672195
 C        -0.444367         3.554366         2.926301
 C         0.761627         4.021116         2.255261
 O         0.974552         2.852747         1.476827
 C        -0.077491         2.655916         0.655885
 H         0.988133        -0.043318         1.172268
 H        -2.309828         2.240921        -0.410965
 H        -2.573270         0.482258        -0.086114
 H        -2.044786         0.962341         2.530356
 H        -1.910607         3.868435         1.264810
 H        -1.045412         4.314871         3.395593
 H        -0.313654         2.834800         3.714984
 H         0.534078         5.046292         1.696801
 H         1.682967         4.122095         2.850742
 H         0.040149         3.212501        -0.302550
