19
Iteration:  1980charge 0 multiplicity 1
 O         0.332606         0.196216         0.628798
 C        -0.546722         1.249483         0.618308
 C        -1.930592         1.068410         0.303016
 C        -1.586421         1.561793         1.711460
 C        -1.385612         3.060716         1.601185
 C        -0.519998         3.870527         2.690449
 C         0.748910         3.163155         2.629659
 O         0.969705         3.216365         1.170753
 C        -0.259043         2.781127         0.613823
 H         1.237259         0.603343         0.444943
 H        -2.299374         1.797856        -0.444789
 H        -2.359291        -0.015180         0.232275
 H        -1.948201         0.792674         2.537416
 H        -2.206363         3.782022         1.364126
 H        -0.391743         4.881795         2.425309
 H        -0.892647         3.762009         3.690148
 H         1.597906         3.541482         3.202272
 H         0.587058         2.100095         2.850053
 H        -0.260044         3.196654        -0.474557
