19
Iteration:  1991
 O         0.363412         0.287569         0.645479
 C        -0.593344         1.280423         0.684869
 C        -2.039587         1.099057         0.273094
 C        -1.546672         1.511956         1.719320
 C        -1.346426         3.067874         1.582467
 C        -0.580145         3.821670         2.702036
 C         0.759809         3.115204         2.597432
 O         1.045949         3.181210         1.203116
 C        -0.216565         2.775046         0.521186
 H         1.171793         0.761753         0.622514
 H        -2.718161         1.625830        -0.450686
 H        -2.330852        -0.013064         0.381458
 H        -1.854572         0.895847         2.688842
 H        -2.247353         3.449856         1.036434
 H        -0.509740         4.831762         2.414643
 H        -1.018883         3.785465         3.683549
 H         1.576069         3.678288         3.042981
 H         0.680936         2.146903         3.117179
 H        -0.389497         3.388804        -0.445587
