19
Iteration:  1874charge 0 multiplicity 1
 O         0.388913         0.290817         0.660924
 C        -0.622587         1.249123         0.712725
 C        -1.997114         1.104247         0.201443
 C        -1.768582         1.544957         1.610416
 C        -1.411417         3.072662         1.647021
 C        -0.584366         3.676156         2.767099
 C         0.910808         3.436370         2.537822
 O         1.089027         3.013686         1.171213
 C        -0.227226         2.699768         0.596616
 H         1.231590         0.699782         0.731513
 H        -2.406411         1.874344        -0.448333
 H        -2.370987         0.010289         0.192957
 H        -2.289216         1.020685         2.484071
 H        -2.124139         3.866979         1.440050
 H        -0.803463         4.805902         2.821620
 H        -0.903186         3.301853         3.821418
 H         1.430441         4.375791         2.500999
 H         1.389077         2.730072         3.281565
 H        -0.243420         3.138115        -0.386786
