19
Iteration:  3473
 O         0.224409         0.132595         0.565680
 C        -0.544799         1.264246         0.634402
 C        -2.043054         1.094114         0.204895
 C        -1.633542         1.594786         1.584468
 C        -1.329993         3.094391         1.586077
 C        -0.593766         3.542466         2.911731
 C         0.817182         3.761814         2.479864
 O         1.058046         2.897983         1.320412
 C        -0.135077         2.780206         0.608971
 H         1.076798         0.393797         1.034323
 H        -2.459489         1.748429        -0.547442
 H        -2.232895         0.063414         0.242804
 H        -1.965233         1.084117         2.510228
 H        -1.960677         3.786845         0.972838
 H        -0.989293         4.525488         3.311136
 H        -0.746777         2.712437         3.629361
 H         0.935603         4.801487         2.312726
 H         1.650759         3.564322         3.170489
 H        -0.124835         3.335958        -0.306295
