19
Iteration:  2590charge 0 multiplicity 1
 O         0.313444         0.179895         0.475003
 C        -0.547677         1.188936         0.687322
 C        -1.975845         1.034324         0.309305
 C        -1.677200         1.663410         1.671308
 C        -1.301758         3.156037         1.543704
 C        -0.689801         3.743612         2.942247
 C         0.879894         3.414752         2.542122
 O         1.050444         3.067300         1.196435
 C        -0.224912         2.706360         0.581108
 H         1.084372         0.480386         0.930875
 H        -2.489128         1.548588        -0.564640
 H        -2.152151        -0.071108         0.344448
 H        -2.136024         1.167229         2.476376
 H        -2.070473         3.833676         1.156005
 H        -0.882723         4.782793         2.909056
 H        -1.079146         3.302962         3.786132
 H         1.417263         4.332864         2.733740
 H         1.357737         2.726256         3.276399
 H        -0.273601         3.150479        -0.489069
