19
Iteration:  2007charge 0 multiplicity 1
 O         0.429408         0.349346         0.603160
 C        -0.547303         1.335820         0.587143
 C        -2.065654         1.018949         0.434560
 C        -1.689004         1.613471         1.720679
 C        -1.395477         3.089952         1.532431
 C        -0.677136         3.726515         2.715343
 C         0.809738         3.170484         2.620210
 O         1.065641         3.021231         1.162373
 C        -0.169520         2.801581         0.532693
 H         1.213814         0.900088         0.946896
 H        -2.590297         1.770049        -0.181144
 H        -2.290470        -0.002261         0.220902
 H        -1.729386         1.113718         2.610422
 H        -2.143414         3.832464         1.314549
 H        -0.638652         4.859888         2.482002
 H        -1.226665         3.522782         3.669479
 H         1.561842         3.855042         3.063828
 H         0.904981         2.118227         2.995783
 H        -0.019445         3.120897        -0.459540
