19
Iteration:  4732
 O         0.258270         0.115752         0.358657
 C        -0.551706         1.276263         0.516884
 C        -2.029501         1.168582         0.198635
 C        -1.675702         1.488689         1.603343
 C        -1.282848         2.944571         1.665210
 C        -0.563508         3.664443         3.012362
 C         0.804263         3.937225         2.422472
 O         1.109561         2.834343         1.494014
 C        -0.150922         2.741649         0.607670
 H         0.431017        -0.020866         1.334074
 H        -2.755612         1.953288        -0.097403
 H        -2.393356         0.205217        -0.146903
 H        -1.877929         0.728221         2.419072
 H        -2.089913         3.556881         1.417078
 H        -1.202987         4.467960         3.244111
 H        -0.724623         3.011794         3.918747
 H         0.785117         4.781625         1.726897
 H         1.515151         4.075292         3.122284
 H        -0.014469         3.469128        -0.269920
