19
Iteration:   249
 O         0.195614         0.089099         0.531288
 C        -0.605410         1.192104         0.539821
 C        -2.075593         1.161925         0.270483
 C        -1.578415         1.592862         1.698789
 C        -1.336842         3.072094         1.574201
 C        -0.645172         3.665042         2.901319
 C         0.867958         3.855627         2.468995
 O         1.115520         2.873504         1.370055
 C        -0.097234         2.670794         0.534751
 H         0.960454         0.408170         0.899037
 H        -2.593994         1.894029        -0.434169
 H        -2.567470         0.132161         0.315982
 H        -1.995266         1.130144         2.540716
 H        -2.165230         3.741257         1.062973
 H        -1.218642         4.522957         3.278787
 H        -0.545094         2.793806         3.578639
 H         1.207348         4.968968         2.259170
 H         1.552918         3.387567         3.287259
 H         0.184988         3.181714        -0.437553
