19
Iteration:  1151charge 0 multiplicity 1
 O         0.354330         0.295509         0.674142
 C        -0.620672         1.289508         0.516351
 C        -2.066927         1.023794         0.300430
 C        -1.607519         1.540786         1.593622
 C        -1.349642         3.119752         1.626614
 C        -0.574486         3.848267         2.784723
 C         0.827431         3.307647         2.585938
 O         1.039251         2.957561         1.202675
 C        -0.207384         2.775517         0.585601
 H         1.071115         0.698912         1.116636
 H        -2.648719         1.489331        -0.598697
 H        -2.132223        -0.122577         0.345954
 H        -1.724261         1.050110         2.572241
 H        -2.230531         3.588683         1.246404
 H        -0.687034         4.894411         2.490336
 H        -1.108126         3.823970         3.749996
 H         1.588860         4.061114         2.834595
 H         0.937181         2.414609         3.289911
 H        -0.023858         3.288046        -0.365847
