19
Iteration:  2974
 O         0.355917         0.201885         0.441000
 C        -0.674204         1.231970         0.693212
 C        -2.041544         1.232927         0.231353
 C        -1.764912         1.518277         1.665693
 C        -1.299421         3.054252         1.647365
 C        -0.605487         3.615684         2.804000
 C         0.840305         3.867100         2.405563
 O         1.118096         2.812750         1.419257
 C        -0.146518         2.584472         0.615472
 H         1.052609         0.635740         0.985158
 H        -2.420026         2.018580        -0.407487
 H        -2.378210         0.307982        -0.016367
 H        -2.140059         0.957495         2.560583
 H        -2.076678         3.732090         1.270198
 H        -1.156198         4.443153         3.227335
 H        -0.643607         2.933896         3.779949
 H         1.035944         4.907988         1.966277
 H         1.567754         3.574277         3.178227
 H         0.027366         3.083991        -0.426212
