19
Iteration:  3257charge 0 multiplicity 1
 O         0.353383         0.250193         0.455916
 C        -0.561452         1.264736         0.666516
 C        -2.059893         1.051814         0.241573
 C        -1.830637         1.580481         1.661331
 C        -1.303352         3.114668         1.599645
 C        -0.541960         3.622161         2.806537
 C         0.899092         3.821602         2.493122
 O         1.024330         2.791116         1.399613
 C        -0.181628         2.680949         0.608949
 H         1.162656         0.582108         0.945558
 H        -2.505350         1.533094        -0.598980
 H        -2.288457        -0.096844         0.062405
 H        -2.491079         1.093458         2.384698
 H        -1.986951         3.910984         1.240237
 H        -1.099747         4.383478         3.303706
 H        -0.614765         2.732675         3.453348
 H         1.267601         4.779068         2.182401
 H         1.578278         3.669821         3.397615
 H         0.041301         3.205824        -0.357212
