19
Iteration:  1769charge 0 multiplicity 1
 O         0.493312         0.318365         0.464761
 C        -0.562123         1.286762         0.715573
 C        -1.997669         1.073339         0.407514
 C        -1.663417         1.656606         1.851640
 C        -1.337082         3.130431         1.466317
 C        -0.637219         3.812207         2.657616
 C         0.692045         3.157347         2.638746
 O         1.030934         2.972436         1.190134
 C        -0.238066         2.739314         0.543194
 H         1.305911         0.790078         0.804208
 H        -2.708558         1.666557        -0.176609
 H        -2.305094         0.033082         0.615035
 H        -2.024189         1.283898         2.802823
 H        -2.141831         3.782009         1.031767
 H        -0.381955         4.844206         2.519123
 H        -1.174946         3.704202         3.546288
 H         1.591416         3.694512         3.089357
 H         0.716204         2.151479         3.057495
 H        -0.188762         3.224697        -0.509055
