19
Iteration:  2720charge 0 multiplicity 1
 O         0.190553         0.043510         0.432327
 C        -0.571592         1.187345         0.657703
 C        -2.038269         1.245767         0.202221
 C        -1.634249         1.565453         1.673832
 C        -1.259348         3.000144         1.596150
 C        -0.620715         3.533600         2.933036
 C         0.779547         3.990401         2.388334
 O         1.096635         2.928160         1.423326
 C        -0.108151         2.647219         0.607709
 H         1.006790         0.011816         1.052802
 H        -2.380406         2.025449        -0.429009
 H        -2.446308         0.363621        -0.094460
 H        -2.002778         1.194812         2.568252
 H        -1.942404         3.797164         1.201504
 H        -1.163590         4.405756         3.444300
 H        -0.402583         2.743613         3.721514
 H         0.754439         5.047570         1.973912
 H         1.579024         3.853581         3.149666
 H        -0.015736         3.056309        -0.353992
