19
Iteration:  3982
 O         0.285709         0.213243         0.589595
 C        -0.621118         1.254744         0.592718
 C        -2.014507         1.081873         0.150386
 C        -1.840302         1.606417         1.617172
 C        -1.253788         3.030460         1.609248
 C        -0.555155         3.451198         2.962017
 C         0.869139         3.867157         2.392147
 O         1.105597         2.916925         1.347208
 C        -0.148171         2.730085         0.589724
 H         0.631828         0.178371         1.481927
 H        -2.589395         1.858792        -0.326130
 H        -2.316975         0.052465        -0.077145
 H        -2.071045         1.131090         2.522852
 H        -2.069835         3.741663         1.179841
 H        -1.201287         4.201448         3.524141
 H        -0.474514         2.644191         3.702990
 H         0.957866         4.890433         2.015297
 H         1.807116         3.829481         3.052815
 H        -0.015817         3.219375        -0.395548
