19
Iteration:  4942charge 0 multiplicity 1
 O         0.215428         0.242727         0.561650
 C        -0.600965         1.347514         0.567931
 C        -2.016304         1.153763         0.162126
 C        -1.700110         1.457655         1.599934
 C        -1.386201         2.968431         1.657813
 C        -0.529095         3.459139         2.922662
 C         0.876581         3.874408         2.419674
 O         1.083691         2.907081         1.356476
 C        -0.121338         2.736703         0.613308
 H         0.868816         0.350461         1.256394
 H        -2.432875         1.864156        -0.494888
 H        -2.267066         0.072752         0.071854
 H        -1.773803         0.728764         2.401789
 H        -2.193936         3.638303         1.488617
 H        -0.949213         4.321853         3.433938
 H        -0.575826         2.703264         3.749810
 H         0.858791         5.020239         2.051017
 H         1.713263         3.750729         3.007866
 H        -0.157296         3.274832        -0.346802
