19
Iteration:  3720charge 0 multiplicity 1
 O         0.353339         0.156904         0.571033
 C        -0.616066         1.152862         0.742832
 C        -1.966461         1.163301         0.161394
 C        -1.871368         1.585117         1.554033
 C        -1.322725         3.036732         1.602343
 C        -0.559784         3.518901         2.870928
 C         0.932697         3.825900         2.485440
 O         1.093814         2.964464         1.305079
 C        -0.236409         2.714017         0.605933
 H         1.119122         0.644013         0.924201
 H        -2.516407         1.852029        -0.619796
 H        -2.671621         0.361179        -0.007534
 H        -2.267695         0.940004         2.433124
 H        -2.027931         3.823964         1.372061
 H        -1.059830         4.451960         3.268755
 H        -0.381505         2.783928         3.656849
 H         1.153137         4.899145         2.374941
 H         1.493817         3.385356         3.352737
 H        -0.161488         3.044543        -0.415649
