19
Iteration:  1959
 O         0.373082         0.076226         0.540266
 C        -0.480187         1.264461         0.779087
 C        -1.938107         1.130226         0.285554
 C        -1.702064         1.633459         1.722561
 C        -1.436943         3.110657         1.609626
 C        -0.641677         3.803374         2.819625
 C         0.814717         3.172797         2.551404
 O         1.019847         3.198013         1.145479
 C        -0.197782         2.794305         0.528896
 H         1.262153         0.567444         0.680194
 H        -2.507377         1.642109        -0.563419
 H        -2.092019        -0.038853         0.385540
 H        -2.130078         1.027093         2.670584
 H        -2.212330         3.773213         1.151797
 H        -0.580568         4.775087         2.533715
 H        -1.004270         3.710867         3.830344
 H         1.576938         3.894255         2.839361
 H         0.930434         2.181525         3.079946
 H        -0.394558         3.270076        -0.509822
