19
Iteration:     9charge 0 multiplicity 1
 O         0.343461         0.326214         0.604699
 C        -0.615701         1.298972         0.677398
 C        -1.981782         1.001905         0.309297
 C        -1.705834         1.712437         1.718565
 C        -1.441166         3.222700         1.560410
 C        -0.544361         3.771220         2.723472
 C         0.893306         3.150986         2.609375
 O         1.087763         2.944876         1.183534
 C        -0.230134         2.753805         0.526074
 H         1.090166         0.740980         0.922066
 H        -2.622483         1.568789        -0.545549
 H        -2.025822        -0.079756         0.187823
 H        -1.854419         1.098840         2.663604
 H        -2.259294         3.832869         1.306569
 H        -0.651330         4.922078         2.690166
 H        -1.118725         3.464873         3.681250
 H         1.617278         3.913581         2.877238
 H         0.772035         2.230189         3.265686
 H        -0.187065         3.127663        -0.525939
