19
Iteration:  3817charge 0 multiplicity 1
 O         0.339009         0.216209         0.398398
 C        -0.566377         1.267128         0.711947
 C        -1.927742         1.176418         0.175969
 C        -1.808913         1.538920         1.687987
 C        -1.400577         3.112877         1.646868
 C        -0.552061         3.611203         2.910189
 C         0.831259         3.827004         2.309471
 O         1.060172         2.779082         1.435283
 C        -0.143898         2.615029         0.682656
 H         1.144528         0.389977         0.941075
 H        -2.491093         1.873076        -0.387358
 H        -2.246780         0.211561        -0.124269
 H        -2.521567         1.052954         2.432922
 H        -2.109521         3.784425         1.195091
 H        -1.057841         4.459461         3.380927
 H        -0.585314         2.868522         3.692787
 H         0.895076         4.877676         1.955156
 H         1.638254         3.892415         3.112800
 H        -0.080313         2.969059        -0.403544
