19
Iteration:  4798charge 0 multiplicity 1
 O         0.320764         0.248701         0.325273
 C        -0.598243         1.179860         0.623303
 C        -1.983673         1.086768         0.241040
 C        -1.758522         1.613368         1.674690
 C        -1.280594         3.107946         1.628542
 C        -0.647864         3.584320         2.938042
 C         0.833051         3.825277         2.463015
 O         1.140560         2.839415         1.373543
 C        -0.198600         2.644943         0.689739
 H         1.210699         0.441003         0.622404
 H        -2.557430         1.696293        -0.500467
 H        -2.473490         0.163892         0.340336
 H        -2.221471         1.241465         2.666487
 H        -1.969659         3.747594         1.190510
 H        -1.067285         4.418132         3.435204
 H        -0.736805         2.732458         3.676889
 H         0.772431         4.923614         2.161009
 H         1.598703         3.662765         3.097638
 H        -0.168606         3.142753        -0.341884
