19
Iteration:   119charge 0 multiplicity 1
 O         0.271348         0.040411         0.569925
 C        -0.636108         1.122780         0.608474
 C        -2.079471         1.057650         0.265155
 C        -1.617346         1.590561         1.699430
 C        -1.245308         3.062385         1.592421
 C        -0.582543         3.789372         2.769038
 C         0.840390         3.331586         2.601026
 O         1.096735         3.388092         1.180770
 C        -0.164733         2.808807         0.612347
 H         0.555078        -0.169371         1.452275
 H        -2.657175         1.625798        -0.550379
 H        -2.431270        -0.013522         0.458518
 H        -1.997895         1.122586         2.572758
 H        -2.014316         3.699133         1.206045
 H        -0.670436         4.903332         2.519807
 H        -1.036146         3.637322         3.791233
 H         1.622531         3.861114         3.043935
 H         0.828431         2.222607         2.742498
 H        -0.111045         3.206516        -0.395570
