19
Iteration:   299
 O         0.189050        -0.043677         0.428328
 C        -0.519425         1.166499         0.698719
 C        -1.997223         1.311725         0.169798
 C        -1.770512         1.595545         1.620311
 C        -1.273201         3.080947         1.700037
 C        -0.485690         3.610247         2.935723
 C         0.768562         4.032545         2.276877
 O         1.016045         2.873086         1.448247
 C        -0.074292         2.601109         0.650569
 H         0.951008        -0.126900         1.176126
 H        -2.348542         2.067105        -0.459919
 H        -2.381772         0.288102        -0.042734
 H        -2.189726         0.899902         2.399577
 H        -2.054265         3.734160         1.425614
 H        -1.042617         4.376305         3.507610
 H        -0.231208         2.761106         3.592265
 H         0.713410         4.948800         1.784747
 H         1.598380         4.037473         2.920607
 H         0.071397         3.046747        -0.318656
