19
Iteration:  1545charge 0 multiplicity 1
 O         0.365378         0.250822         0.598998
 C        -0.507743         1.322508         0.639827
 C        -1.995607         1.031162         0.384278
 C        -1.552830         1.621702         1.744549
 C        -1.342089         3.139273         1.581527
 C        -0.620632         3.828315         2.727271
 C         0.660028         3.132255         2.555383
 O         1.024378         3.078250         1.168168
 C        -0.175337         2.815769         0.465744
 H         1.020434         0.312742         1.406038
 H        -2.713321         1.632518        -0.128069
 H        -2.131272        -0.032257         0.205586
 H        -1.760533         1.229571         2.764945
 H        -2.295760         3.594815         1.098164
 H        -0.682886         4.925334         2.634802
 H        -1.126015         3.530712         3.711766
 H         1.466574         3.655208         3.047583
 H         0.644563         1.998690         2.949049
 H        -0.093047         3.303125        -0.522573
