19
Iteration:  1578
 O         0.462439         0.337699         0.565447
 C        -0.621429         1.278738         0.724809
 C        -2.020697         0.863600         0.317284
 C        -1.810757         1.709600         1.690317
 C        -1.336030         3.122671         1.544736
 C        -0.533375         3.760281         2.717111
 C         0.838924         3.159678         2.621482
 O         1.012507         3.086961         1.206224
 C        -0.214776         2.753294         0.555933
 H         1.291479         0.846720         0.504479
 H        -2.645733         1.391458        -0.393022
 H        -2.125869        -0.152319         0.427488
 H        -2.398596         1.446104         2.544073
 H        -2.105611         3.917228         1.147364
 H        -0.349758         4.806227         2.402364
 H        -0.989757         3.765703         3.768690
 H         1.424526         3.995160         2.926847
 H         0.972400         2.325777         3.354258
 H        -0.143213         3.188148        -0.457744
