19
Iteration:  1192charge 0 multiplicity 1
 O         0.333102         0.119721         0.509619
 C        -0.540782         1.242404         0.781628
 C        -1.999508         1.120508         0.347240
 C        -1.660120         1.697189         1.705605
 C        -1.299744         3.131086         1.532932
 C        -0.717072         3.757081         2.777945
 C         0.788519         3.285657         2.566523
 O         1.040087         3.224161         1.159864
 C        -0.102480         2.617371         0.566416
 H         1.280274         0.307245         0.830406
 H        -2.576698         1.736654        -0.383655
 H        -2.211958        -0.009933         0.375915
 H        -2.161766         1.086022         2.525269
 H        -2.040773         3.888327         1.095264
 H        -0.835490         4.896052         2.916883
 H        -1.033832         3.324030         3.730773
 H         1.497778         3.967782         3.071322
 H         0.899066         2.285056         2.998804
 H        -0.260925         2.907053        -0.584574
