19
Iteration:  3036
 O         0.308120         0.232427         0.543013
 C        -0.626929         1.235869         0.603043
 C        -2.090744         1.109051         0.285642
 C        -1.689631         1.609502         1.673139
 C        -1.264420         3.078792         1.557536
 C        -0.648062         3.508413         2.833843
 C         0.846473         3.686805         2.449786
 O         1.130467         2.926786         1.323325
 C        -0.109336         2.773918         0.582950
 H         0.784372         0.463777         1.400239
 H        -2.651676         1.777800        -0.393108
 H        -2.255292        -0.009340         0.118518
 H        -2.108589         0.985289         2.559347
 H        -2.047975         3.819909         1.248111
 H        -1.070041         4.458315         3.219693
 H        -0.828524         2.762356         3.638665
 H         0.905939         4.779601         2.239890
 H         1.548153         3.268146         3.280389
 H        -0.145556         3.213773        -0.376450
