19
Iteration:  3840charge 0 multiplicity 1
 O         0.355147         0.159103         0.448590
 C        -0.633312         1.238186         0.599690
 C        -2.079187         1.138463         0.175036
 C        -1.695422         1.573689         1.617417
 C        -1.291680         3.014424         1.723626
 C        -0.580714         3.629302         2.882594
 C         0.848224         3.877650         2.369784
 O         1.035199         2.816664         1.434368
 C        -0.132525         2.678304         0.688423
 H         1.103496         0.530967         0.955703
 H        -2.336650         1.832489        -0.643961
 H        -2.625426         0.218779        -0.055451
 H        -2.149716         0.919768         2.396213
 H        -2.063309         3.654563         1.377330
 H        -1.210142         4.500802         3.106586
 H        -0.661480         3.036963         3.777619
 H         1.128446         4.899034         2.001793
 H         1.575876         3.820321         3.215515
 H        -0.079433         3.258223        -0.301499
