19
Iteration:  1224charge 0 multiplicity 1
 O         0.318836         0.117769         0.600143
 C        -0.544142         1.290919         0.710339
 C        -1.980294         1.071764         0.305592
 C        -1.624521         1.601299         1.685703
 C        -1.403212         3.149403         1.568897
 C        -0.619359         3.759868         2.715310
 C         0.857231         3.174324         2.568628
 O         1.021973         3.253378         1.185599
 C        -0.190494         2.767878         0.564437
 H         0.961837        -0.001406         1.317456
 H        -2.475187         1.727005        -0.343087
 H        -2.112068        -0.033157         0.136915
 H        -2.004189         0.961939         2.549944
 H        -2.310726         3.735151         1.146780
 H        -0.580676         4.886302         2.467306
 H        -0.991724         3.674482         3.736570
 H         1.426680         3.953881         3.095459
 H         1.035977         2.208052         3.010307
 H        -0.194818         3.270348        -0.487439
