19
Iteration:  2491charge 0 multiplicity 1
 O         0.487141         0.513696         0.612747
 C        -0.621361         1.317023         0.672261
 C        -2.119469         1.012450         0.425353
 C        -1.760316         1.652703         1.720962
 C        -1.329443         3.114365         1.493253
 C        -0.613229         3.652136         2.733022
 C         0.825973         3.152780         2.555911
 O         1.117147         2.987788         1.230216
 C        -0.229901         2.741324         0.466346
 H         1.273972         1.028300         0.734990
 H        -2.643448         1.476136        -0.433427
 H        -2.346430        -0.207852         0.563970
 H        -2.026281         1.253814         2.764411
 H        -2.055680         3.805305         1.029295
 H        -0.647411         4.735266         2.702950
 H        -1.114231         3.230969         3.537827
 H         1.553341         3.855214         3.083527
 H         0.770361         2.161682         3.044127
 H        -0.104684         3.032471        -0.688542
