19
Iteration:  2128charge 0 multiplicity 1
 O         0.231174         0.117037         0.445055
 C        -0.556282         1.235542         0.723585
 C        -1.932211         0.988540         0.355286
 C        -1.697098         1.608346         1.741609
 C        -1.342716         3.143438         1.542867
 C        -0.654956         3.743939         2.685481
 C         0.810741         3.218564         2.632208
 O         1.090979         3.365592         1.246438
 C        -0.160655         2.741553         0.543966
 H         1.053249         0.326078         0.825705
 H        -2.447876         1.529983        -0.418586
 H        -2.170141        -0.194734         0.292848
 H        -1.755762         1.120468         2.785928
 H        -2.182757         3.769525         1.288301
 H        -0.568417         4.857175         2.645260
 H        -1.160785         3.597548         3.637011
 H         1.568845         3.900033         3.157446
 H         0.996254         2.223877         3.119855
 H         0.056884         3.098077        -0.471793
