19
Iteration:  2838
 O         0.316186         0.262791         0.674659
 C        -0.612977         1.289395         0.544236
 C        -2.087852         1.019347         0.145251
 C        -1.787496         1.546843         1.588404
 C        -1.335183         3.127120         1.613001
 C        -0.513667         3.503616         2.892423
 C         0.994826         3.765488         2.502385
 O         1.025172         2.872220         1.305950
 C        -0.184508         2.758474         0.578756
 H         1.028874         0.626616         1.323353
 H        -2.559891         1.514439        -0.698729
 H        -2.391107         0.022078         0.202320
 H        -2.167937         0.997856         2.358620
 H        -1.986789         3.943267         1.229320
 H        -1.086497         4.321391         3.453593
 H        -0.577345         2.554165         3.551787
 H         1.124131         4.940715         2.316196
 H         1.785893         3.473465         3.215994
 H        -0.159999         3.415266        -0.383395
