19
Iteration:   748
 O         0.288998         0.045717         0.563757
 C        -0.537161         1.257534         0.620573
 C        -2.072283         1.073689         0.344385
 C        -1.694066         1.606002         1.699184
 C        -1.304187         3.101469         1.564344
 C        -0.583013         3.778793         2.740729
 C         0.820331         3.223144         2.651652
 O         1.046241         3.337159         1.226881
 C        -0.135271         2.752327         0.494072
 H         1.088171         0.082770         1.219605
 H        -2.512508         1.695067        -0.286950
 H        -2.381064         0.049390         0.267384
 H        -2.202667         1.200809         2.565832
 H        -1.913779         3.864088         1.014530
 H        -0.618796         4.794272         2.558554
 H        -1.129178         3.565381         3.679969
 H         1.596156         3.893275         3.125649
 H         0.902774         2.178167         3.008414
 H         0.024633         3.141257        -0.553242
