19
Iteration:  3543charge 0 multiplicity 1
 O         0.326720         0.173912         0.419141
 C        -0.558151         1.240826         0.695195
 C        -2.064416         1.184212         0.219876
 C        -1.743315         1.622264         1.624811
 C        -1.336966         3.074379         1.529738
 C        -0.588742         3.546394         2.881851
 C         0.820467         3.931715         2.380036
 O         1.021699         2.765983         1.449415
 C        -0.108663         2.643010         0.736640
 H         1.234818         0.445373         0.640224
 H        -2.258548         1.817045        -0.670260
 H        -2.273753         0.023840         0.306452
 H        -2.134383         0.942224         2.362473
 H        -2.057418         3.831180         1.345634
 H        -1.039614         4.449892         3.271186
 H        -0.410085         2.756041         3.620604
 H         1.044346         4.850163         1.927382
 H         1.470947         3.863536         3.325144
 H        -0.048353         3.156423        -0.208338
