19
Iteration:  2964
 O         0.371064         0.210016         0.436334
 C        -0.640202         1.189969         0.630860
 C        -2.101538         1.240223         0.171278
 C        -1.771642         1.525939         1.806521
 C        -1.368261         3.056870         1.599718
 C        -0.560775         3.604148         2.815419
 C         0.863885         3.878748         2.337312
 O         1.056311         2.795822         1.458701
 C        -0.078384         2.648707         0.688327
 H         1.144274         0.486218         1.028277
 H        -2.421101         2.041839        -0.549555
 H        -2.390838         0.298121        -0.094112
 H        -2.215217         0.923668         2.629460
 H        -2.109940         3.676887         1.102330
 H        -1.042318         4.416128         3.316933
 H        -0.409175         2.612651         3.442508
 H         1.062868         4.937549         1.923285
 H         1.413136         3.788310         3.288289
 H         0.162100         3.077723        -0.364246
