19
Iteration:  2032charge 0 multiplicity 1
 O         0.459223         0.397468         0.507586
 C        -0.585463         1.316965         0.696796
 C        -2.017805         0.899106         0.350808
 C        -1.669447         1.756358         1.665191
 C        -1.280061         3.200444         1.514300
 C        -0.698335         3.727002         2.812341
 C         0.861921         3.216558         2.584207
 O         0.986323         2.867674         1.238789
 C        -0.262813         2.800423         0.505032
 H         1.269874         0.920153         0.898536
 H        -2.648124         1.114434        -0.429028
 H        -2.111622        -0.209613         0.744178
 H        -2.197072         1.378361         2.657798
 H        -2.097125         3.926660         1.218619
 H        -0.677400         4.918120         3.021810
 H        -1.301445         3.187051         3.585422
 H         1.499783         4.108717         2.812504
 H         1.203042         2.348808         3.143116
 H        -0.093126         3.164232        -0.514286
