19
Iteration:   510charge 0 multiplicity 1
 O         0.364066         0.252601         0.533306
 C        -0.571580         1.318726         0.578256
 C        -2.043917         0.886478         0.347587
 C        -1.663794         1.686171         1.672992
 C        -1.321012         3.222620         1.579520
 C        -0.621729         3.872024         2.787143
 C         0.830250         3.284818         2.713699
 O         1.044539         2.854985         1.176300
 C        -0.219300         2.835605         0.479876
 H         1.181286         0.637252         0.976418
 H        -2.828454         1.406046        -0.350651
 H        -2.163267        -0.246903         0.492753
 H        -1.728835         1.291528         2.744904
 H        -2.105960         3.856083         1.208959
 H        -0.746861         5.014577         2.638322
 H        -1.157603         3.531278         3.768469
 H         1.667516         3.873114         2.903487
 H         0.916775         2.467996         3.490408
 H        -0.089062         3.267783        -0.512959
