19
Iteration:  3281
 O         0.312188         0.189534         0.518924
 C        -0.527442         1.274554         0.646629
 C        -2.041171         1.142117         0.251908
 C        -1.649979         1.629072         1.607398
 C        -1.365913         3.080075         1.649665
 C        -0.681518         3.619900         2.906136
 C         0.820046         3.704965         2.442336
 O         1.076378         2.831052         1.276596
 C        -0.109133         2.687164         0.618004
 H         0.970901         0.303707         1.197175
 H        -2.402026         1.878081        -0.434109
 H        -2.328145         0.135424        -0.067344
 H        -2.065206         1.136761         2.522483
 H        -2.233278         3.765729         1.412739
 H        -1.129050         4.562083         3.254890
 H        -0.921757         2.847894         3.724236
 H         1.011846         4.708525         2.100906
 H         1.686684         3.584688         3.069637
 H         0.006701         3.182603        -0.343414
