19
Iteration:  4878
 O         0.327979         0.310648         0.534821
 C        -0.590515         1.204512         0.709782
 C        -2.024712         1.120929         0.192557
 C        -1.871356         1.552624         1.661835
 C        -1.379974         3.086852         1.595475
 C        -0.522650         3.445384         2.829971
 C         0.928777         3.737241         2.510907
 O         1.129762         2.975304         1.217200
 C        -0.219042         2.690320         0.706182
 H         1.097616         0.755174         0.950577
 H        -2.368749         1.691633        -0.594877
 H        -2.230855         0.040155        -0.021379
 H        -2.377045         0.959611         2.370033
 H        -2.116753         3.750023         1.168365
 H        -1.014219         4.304956         3.320172
 H        -0.558988         2.625495         3.475804
 H         1.088577         4.835059         2.545182
 H         1.641263         3.257606         3.200156
 H        -0.180354         3.248189        -0.294843
