19
Iteration:  4299
 O         0.217465        -0.000910         0.587208
 C        -0.540431         1.251417         0.632662
 C        -2.004465         1.227933         0.149513
 C        -1.717423         1.584340         1.512155
 C        -1.338158         3.080002         1.780662
 C        -0.572928         3.451902         3.002298
 C         0.834613         3.901769         2.327269
 O         1.097335         2.995756         1.323067
 C        -0.131254         2.695320         0.672111
 H         1.069394         0.142889         0.174574
 H        -2.282009         1.838712        -0.642262
 H        -2.251009         0.189409         0.124369
 H        -2.361543         0.993368         2.194007
 H        -2.113082         3.719805         1.458405
 H        -1.170783         4.313786         3.456483
 H        -0.290625         2.596010         3.643615
 H         0.584189         4.946911         1.982370
 H         1.696688         3.881415         3.061752
 H        -0.127296         3.238334        -0.296588
