19
Iteration:  3345charge 0 multiplicity 1
 O         0.290364         0.175505         0.458583
 C        -0.563673         1.196001         0.680811
 C        -1.936984         1.099070         0.250222
 C        -1.862432         1.715984         1.602545
 C        -1.314065         3.088099         1.650302
 C        -0.581382         3.512018         2.922260
 C         0.808746         3.790088         2.375239
 O         1.101541         2.890140         1.333754
 C        -0.114806         2.679159         0.664804
 H         1.114747         0.091008         0.935677
 H        -2.065526         1.767161        -0.625202
 H        -2.560415         0.202296         0.149159
 H        -2.163769         1.333308         2.597312
 H        -2.078536         3.771331         1.271717
 H        -1.026870         4.334898         3.356235
 H        -0.623931         2.814637         3.758391
 H         0.620992         4.754185         1.871275
 H         1.555452         3.803361         3.255975
 H        -0.115454         3.202394        -0.370064
