19
Iteration:  1976
 O         0.353242         0.162363         0.613562
 C        -0.537296         1.261729         0.617632
 C        -1.910837         1.053187         0.303611
 C        -1.633979         1.578042         1.707487
 C        -1.384332         3.087116         1.646833
 C        -0.555695         3.868510         2.701750
 C         0.773685         3.161281         2.616637
 O         0.951783         3.211703         1.156951
 C        -0.253058         2.783760         0.602163
 H         1.287645         0.401811         0.438558
 H        -2.258084         1.798576        -0.355645
 H        -2.314036         0.055856         0.144964
 H        -1.941857         0.946550         2.510328
 H        -2.233617         3.784039         1.450204
 H        -0.377830         5.017679         2.416614
 H        -1.023880         3.837126         3.728385
 H         1.645960         3.517699         3.207577
 H         0.680587         2.097539         2.815139
 H        -0.180846         3.139494        -0.404200
