19
Iteration:  4397
 O         0.374297         0.254671         0.531719
 C        -0.639523         1.232988         0.578601
 C        -2.086840         1.124478         0.195591
 C        -1.801824         1.471682         1.622549
 C        -1.302533         3.059325         1.653638
 C        -0.602824         3.598754         2.878506
 C         0.914136         3.760963         2.426359
 O         1.108145         2.840754         1.369977
 C        -0.209949         2.728631         0.647919
 H         1.235826         0.728548         0.561536
 H        -2.446345         1.865341        -0.419148
 H        -2.378491         0.137935        -0.050963
 H        -1.970150         1.009375         2.565349
 H        -2.024261         3.814185         1.439721
 H        -1.072482         4.623127         3.097341
 H        -0.753125         2.857125         3.674780
 H         1.076076         4.822024         2.199445
 H         1.560790         3.678570         3.327985
 H        -0.044964         3.300129        -0.227227
