19
Iteration:   298
 O         0.182752        -0.040066         0.421067
 C        -0.517052         1.169518         0.701984
 C        -1.996773         1.301326         0.173610
 C        -1.772702         1.601092         1.616633
 C        -1.275755         3.082542         1.702703
 C        -0.501453         3.616552         2.941177
 C         0.776143         4.030269         2.283136
 O         1.031304         2.877541         1.443892
 C        -0.077674         2.595200         0.649843
 H         0.943486        -0.131980         1.178205
 H        -2.342729         2.033841        -0.476637
 H        -2.341590         0.291546        -0.031736
 H        -2.232029         0.892149         2.395453
 H        -2.058268         3.688316         1.453933
 H        -1.029582         4.381418         3.512580
 H        -0.220376         2.766019         3.552422
 H         0.744526         4.964322         1.755236
 H         1.581520         4.036385         2.937378
 H         0.059555         3.007969        -0.310417
