19
Iteration:  3216
 O         0.281970         0.206980         0.539828
 C        -0.582642         1.280090         0.587430
 C        -2.009836         1.145585         0.233646
 C        -1.648348         1.577460         1.616277
 C        -1.290948         3.061143         1.600742
 C        -0.628895         3.569325         2.922123
 C         0.804740         3.810333         2.386553
 O         1.022280         2.738970         1.401825
 C        -0.101923         2.774438         0.584716
 H         0.854256         0.493163         1.279274
 H        -2.526484         1.877159        -0.328247
 H        -2.142861         0.040355         0.042120
 H        -2.076518         1.157467         2.557209
 H        -2.217881         3.652823         1.333533
 H        -1.071923         4.559846         3.219977
 H        -0.415793         2.703317         3.679915
 H         0.856607         4.885135         1.918267
 H         1.642866         3.749171         3.069954
 H        -0.126184         3.212226        -0.383323
