19
Iteration:  3617
 O         0.272765         0.115150         0.500087
 C        -0.534190         1.237310         0.683514
 C        -1.965296         1.216398         0.164339
 C        -1.767197         1.543777         1.590396
 C        -1.329799         3.059374         1.691690
 C        -0.640780         3.619505         2.881104
 C         0.850841         3.828330         2.420674
 O         1.064535         2.896172         1.333488
 C        -0.143066         2.667045         0.673194
 H         1.206436         0.153893         0.828677
 H        -2.323766         2.024334        -0.462938
 H        -2.288248         0.141047         0.092231
 H        -2.154595         0.826962         2.320249
 H        -2.047562         3.757891         1.257257
 H        -1.122129         4.553700         3.214315
 H        -0.520329         2.860633         3.686340
 H         0.954303         4.933143         2.208728
 H         1.556209         3.544022         3.286167
 H        -0.155255         3.053064        -0.393328
