19
Iteration:  4832charge 0 multiplicity 1
 O         0.288140         0.265436         0.602604
 C        -0.535836         1.334965         0.503486
 C        -2.051375         1.088278         0.178173
 C        -1.622832         1.566189         1.607417
 C        -1.357072         3.030918         1.648302
 C        -0.606640         3.516902         2.911254
 C         0.898035         3.699284         2.470954
 O         1.045435         2.834787         1.308858
 C        -0.238512         2.811703         0.603169
 H         0.875673         0.656609         1.303097
 H        -2.684330         1.725713        -0.440742
 H        -2.429472         0.082559         0.225258
 H        -1.677194         0.840553         2.539241
 H        -2.118729         3.712485         1.466804
 H        -0.872673         4.438733         3.334396
 H        -0.674508         2.722308         3.700211
 H         1.101499         4.808531         2.106695
 H         1.677577         3.527966         3.123686
 H        -0.215427         3.393718        -0.386694
