19
Iteration:  2101
 O         0.318977         0.063429         0.503677
 C        -0.520058         1.223865         0.644395
 C        -1.927537         1.173445         0.302626
 C        -1.555080         1.539359         1.753259
 C        -1.349629         3.108457         1.662592
 C        -0.675907         3.880331         2.706633
 C         0.794885         3.269914         2.605998
 O         0.994753         3.179787         1.192091
 C        -0.219275         2.760584         0.578984
 H         1.075848         0.281748         0.995120
 H        -2.346518         1.960759        -0.445321
 H        -2.221420         0.205169         0.154328
 H        -1.906790         0.950863         2.565831
 H        -2.301761         3.624074         1.370080
 H        -0.817079         4.947143         2.566702
 H        -1.116533         3.572555         3.683483
 H         1.726582         3.648025         2.968713
 H         0.636191         2.276072         3.048126
 H        -0.165481         3.272661        -0.464252
