19
Iteration:   570
 O         0.295886         0.154043         0.485362
 C        -0.591892         1.194506         0.590207
 C        -1.995075         1.156163         0.276987
 C        -1.564134         1.556354         1.736995
 C        -1.339254         3.083687         1.676359
 C        -0.651282         3.909629         2.708500
 C         0.764397         3.415821         2.562295
 O         1.054353         2.985070         1.254094
 C        -0.137150         2.677690         0.646146
 H         1.190514         0.406421         0.834759
 H        -2.405351         1.920881        -0.337746
 H        -2.632130         0.333658         0.341040
 H        -2.023431         1.001773         2.536332
 H        -2.156687         3.672233         1.076474
 H        -0.855315         4.979472         2.667284
 H        -0.847712         3.620126         3.699734
 H         1.582127         4.226300         2.713424
 H         0.883482         2.602197         3.291321
 H        -0.015700         3.176895        -0.394104
