19
Iteration:  4556
 O         0.170900         0.138415         0.679648
 C        -0.559222         1.281208         0.604506
 C        -2.027070         1.155589         0.161561
 C        -1.645127         1.498490         1.531944
 C        -1.311456         3.044333         1.678686
 C        -0.563115         3.438035         2.921002
 C         0.819265         3.857221         2.447754
 O         1.082545         2.978959         1.320835
 C        -0.140585         2.758751         0.638668
 H         0.880572         0.258645         0.030094
 H        -2.492956         1.979149        -0.496139
 H        -2.203756         0.148121        -0.236933
 H        -1.808483         0.842701         2.317794
 H        -2.047444         3.783905         1.349585
 H        -1.088086         4.214755         3.392250
 H        -0.386135         2.500380         3.497164
 H         0.854126         4.910810         2.039009
 H         1.611360         3.790544         3.150687
 H        -0.100606         3.382049        -0.215871
