19
Iteration:  4731charge 0 multiplicity 1
 O         0.262295         0.115507         0.356314
 C        -0.554084         1.266371         0.515698
 C        -2.020312         1.168635         0.203513
 C        -1.672197         1.488483         1.607566
 C        -1.283101         2.953220         1.656391
 C        -0.567206         3.659236         3.012092
 C         0.812047         3.935450         2.422378
 O         1.103547         2.837084         1.495212
 C        -0.160909         2.738924         0.613962
 H         0.426569        -0.015541         1.331411
 H        -2.743766         1.966091        -0.101654
 H        -2.426565         0.191609        -0.172780
 H        -1.888528         0.781720         2.378082
 H        -2.077433         3.586372         1.399575
 H        -1.223005         4.489326         3.283825
 H        -0.701798         3.004218         3.949614
 H         0.790580         4.797184         1.713060
 H         1.535206         4.066243         3.131999
 H        -0.036897         3.454024        -0.286792
