19
Iteration:  3945
 O         0.293758         0.181282         0.614224
 C        -0.590709         1.268620         0.590552
 C        -1.968513         1.142597         0.139086
 C        -1.747426         1.540511         1.650958
 C        -1.352628         3.054287         1.637634
 C        -0.593349         3.557886         2.909951
 C         0.945373         3.820673         2.357298
 O         1.038493         2.810902         1.340068
 C        -0.201248         2.777088         0.629947
 H         1.026549         0.646858         1.037286
 H        -2.343848         2.045399        -0.343443
 H        -2.329901         0.162449        -0.111803
 H        -1.946076         0.907908         2.586699
 H        -2.144921         3.844316         1.395909
 H        -1.110241         4.406827         3.365860
 H        -0.599151         2.609537         3.576414
 H         1.047425         4.755822         1.942071
 H         1.551674         3.539720         3.205644
 H        -0.216356         3.353731        -0.275226
