19
Iteration:  1202
 O         0.380830         0.062600         0.501343
 C        -0.518718         1.156449         0.733665
 C        -1.908023         1.152847         0.333654
 C        -1.709443         1.699499         1.726528
 C        -1.246509         3.150971         1.572097
 C        -0.652285         3.782959         2.812790
 C         0.740175         3.265601         2.598512
 O         0.990904         3.235238         1.104401
 C        -0.174952         2.701433         0.541819
 H         1.129049         0.134915         1.143849
 H        -2.502984         1.778635        -0.286205
 H        -2.543193         0.242000         0.622528
 H        -2.191511         1.231576         2.688428
 H        -2.082291         3.705103         0.964760
 H        -1.050247         4.869435         2.812034
 H        -1.075627         3.242604         3.655048
 H         1.536685         3.852490         3.115361
 H         0.686914         2.269176         2.984863
 H        -0.060088         3.096565        -0.598421
