19
Iteration:  3560charge 0 multiplicity 1
 O         0.231210         0.157789         0.428703
 C        -0.615455         1.230003         0.603015
 C        -1.987626         1.081481         0.196170
 C        -1.730202         1.581506         1.666718
 C        -1.278028         3.074012         1.615191
 C        -0.622616         3.598426         2.866627
 C         0.815754         3.880963         2.438121
 O         1.110702         2.850410         1.495510
 C        -0.090940         2.693646         0.593899
 H         1.067619         0.210594         0.889171
 H        -2.489162         1.885487        -0.329856
 H        -2.286442         0.114581        -0.014972
 H        -2.126880         1.120396         2.628516
 H        -2.049399         3.661249         1.031246
 H        -1.143852         4.307785         3.552243
 H        -0.656245         2.793816         3.663924
 H         0.769919         4.997723         1.967440
 H         1.647040         3.944215         3.135045
 H         0.056503         3.240161        -0.432271
