19
Iteration:   294
 O         0.164819        -0.020740         0.405160
 C        -0.529375         1.180182         0.710199
 C        -1.982438         1.254332         0.194165
 C        -1.776062         1.607641         1.614367
 C        -1.277779         3.066566         1.712990
 C        -0.559684         3.634315         2.949798
 C         0.802498         4.018684         2.298509
 O         1.096667         2.896408         1.428474
 C        -0.090598         2.582369         0.664189
 H         0.783323        -0.129928         1.052611
 H        -2.333077         1.992564        -0.613857
 H        -2.252220         0.235548        -0.002811
 H        -2.336459         0.982755         2.320106
 H        -2.210884         3.687524         1.450807
 H        -1.012407         4.421654         3.548016
 H        -0.199541         2.749399         3.488090
 H         0.842402         5.008745         1.642107
 H         1.631557         4.054541         3.087063
 H         0.012947         2.945445        -0.403765
