19
Iteration:  1844
 O         0.420696         0.242336         0.557953
 C        -0.576066         1.198759         0.682866
 C        -2.067149         1.092517         0.302876
 C        -1.727600         1.591194         1.658816
 C        -1.306505         3.098707         1.584736
 C        -0.618789         3.769238         2.764670
 C         0.828048         3.363832         2.616745
 O         1.035217         3.084281         1.171903
 C        -0.204558         2.650631         0.562439
 H         1.215171         0.586412         1.115088
 H        -2.522505         1.882570        -0.295927
 H        -2.396927         0.091147         0.245247
 H        -2.176038         1.117487         2.494515
 H        -2.051708         3.874157         1.201231
 H        -0.791836         4.910247         2.797444
 H        -0.938780         3.354972         3.764037
 H         1.535300         4.225921         2.742662
 H         1.157465         2.566637         3.266498
 H        -0.102289         3.082528        -0.459851
