19
Iteration:  3244
 O         0.349223         0.267704         0.489423
 C        -0.675056         1.220017         0.584447
 C        -2.047574         1.012662         0.220439
 C        -1.829239         1.635469         1.576060
 C        -1.365579         3.079197         1.560193
 C        -0.614568         3.610493         2.925172
 C         0.916979         3.827415         2.416429
 O         1.120101         2.792270         1.444354
 C        -0.106166         2.702877         0.688051
 H         1.143503         0.748546         0.718555
 H        -2.619940         1.655921        -0.499918
 H        -2.244576        -0.102343         0.370618
 H        -2.080075         1.267137         2.542819
 H        -2.134306         3.727059         1.165344
 H        -1.003542         4.511930         3.348453
 H        -0.456908         2.863677         3.630888
 H         1.057969         4.811453         1.967455
 H         1.693543         3.421063         3.166630
 H        -0.061730         3.168304        -0.365498
