19
Iteration:  3971
 O         0.290845         0.219187         0.627826
 C        -0.597666         1.270601         0.544722
 C        -2.049603         1.144694         0.210865
 C        -1.714097         1.539230         1.567957
 C        -1.290647         3.059873         1.639744
 C        -0.551278         3.479757         3.019752
 C         0.882828         3.830633         2.385621
 O         1.034312         2.865660         1.326874
 C        -0.117561         2.750430         0.551768
 H         0.561293         0.218988         1.546394
 H        -2.351738         1.728003        -0.676470
 H        -2.341033         0.077536         0.149553
 H        -2.155212         0.916193         2.292399
 H        -2.074750         3.921260         1.470074
 H        -1.028970         4.463865         3.287918
 H        -0.690409         2.607572         3.653110
 H         0.671992         4.824357         1.891599
 H         1.757759         3.802300         3.136155
 H        -0.140984         3.271680        -0.437411
