19
Iteration:  2058
 O         0.424843         0.350822         0.546549
 C        -0.589909         1.300923         0.538351
 C        -2.001614         0.952724         0.322865
 C        -1.816957         1.673565         1.712548
 C        -1.379864         3.085905         1.548851
 C        -0.590945         3.777107         2.733014
 C         0.879659         3.323749         2.603563
 O         1.113481         2.926032         1.285709
 C        -0.278992         2.760577         0.569135
 H         1.185984         0.895273         0.838821
 H        -2.775955         1.276212        -0.523121
 H        -2.193552        -0.046713         0.492339
 H        -1.957184         1.171191         2.639320
 H        -2.176053         3.771823         1.196110
 H        -0.654309         4.794309         2.880263
 H        -0.992369         3.299726         3.636949
 H         1.463939         4.163336         2.946890
 H         1.124864         2.485203         3.283168
 H        -0.142505         3.364781        -0.419559
