19
Iteration:  3428charge 0 multiplicity 1
 O         0.329349         0.152132         0.490327
 C        -0.573793         1.199381         0.752286
 C        -2.027821         1.139955         0.140794
 C        -1.788770         1.621827         1.623667
 C        -1.297340         3.148586         1.613489
 C        -0.583165         3.503691         2.859959
 C         0.902555         3.797100         2.453874
 O         1.077760         2.929885         1.317801
 C        -0.213267         2.704005         0.666529
 H         0.998951         0.196394         1.236395
 H        -2.512044         1.790264        -0.533491
 H        -2.351337         0.045925         0.167235
 H        -2.222689         1.107391         2.473683
 H        -2.245769         3.614358         1.281424
 H        -1.196846         4.434521         3.170545
 H        -0.552860         2.653696         3.579183
 H         1.206991         4.808903         2.115116
 H         1.652621         3.598589         3.181887
 H        -0.159048         3.158026        -0.298110
