19
Iteration:  4115charge 0 multiplicity 1
 O         0.275334         0.222407         0.520956
 C        -0.594401         1.295518         0.653745
 C        -2.022257         1.137912         0.198476
 C        -1.730758         1.543550         1.626201
 C        -1.325397         3.037732         1.571202
 C        -0.613354         3.508696         2.840450
 C         0.915738         3.841211         2.417209
 O         1.055233         2.860502         1.421095
 C        -0.145146         2.680346         0.705445
 H         1.126399         0.632420         0.400175
 H        -2.720419         1.747139        -0.464883
 H        -2.393759         0.109152         0.108174
 H        -2.102504         1.115198         2.603801
 H        -2.082242         3.685991         0.980558
 H        -1.039910         4.429497         3.260174
 H        -0.500079         2.679859         3.527215
 H         1.096736         4.877911         2.030289
 H         1.702994         3.728963         3.181953
 H        -0.041024         3.216900        -0.213169
