19
Iteration:  4150
 O         0.329567         0.070350         0.564428
 C        -0.565367         1.224254         0.572289
 C        -2.063734         1.183675         0.150347
 C        -1.661172         1.579735         1.561665
 C        -1.357598         3.067919         1.632250
 C        -0.656553         3.659834         2.956147
 C         0.913703         3.756693         2.445675
 O         1.028651         2.917255         1.337743
 C        -0.140588         2.721341         0.723702
 H         1.024025         0.236767        -0.059520
 H        -2.805379         1.985473        -0.240353
 H        -2.295258         0.063119         0.227934
 H        -1.726576         0.919356         2.461020
 H        -2.135236         3.738629         1.108049
 H        -0.962184         4.603003         3.347170
 H        -0.749276         3.036206         3.827654
 H         0.963793         4.796236         2.108456
 H         1.602155         3.423193         3.183138
 H        -0.121308         3.164476        -0.265926
