19
Iteration:  1548
 O         0.377615         0.250861         0.597160
 C        -0.529835         1.340251         0.629466
 C        -1.982959         1.011002         0.382910
 C        -1.586026         1.631738         1.761655
 C        -1.358536         3.139518         1.569412
 C        -0.628225         3.830745         2.732500
 C         0.688529         3.125119         2.556461
 O         1.042905         3.079607         1.165819
 C        -0.190802         2.804885         0.481874
 H         0.980798         0.295854         1.316069
 H        -2.735315         1.633360        -0.212967
 H        -1.981168        -0.022983         0.282805
 H        -1.778687         1.171221         2.683547
 H        -2.229552         3.653021         1.142387
 H        -0.675341         4.888704         2.628387
 H        -1.025637         3.549114         3.663195
 H         1.509332         3.647905         3.067058
 H         0.512810         2.099866         3.029545
 H        -0.097634         3.304287        -0.553338
