19
Iteration:  1458
 O         0.481593         0.285190         0.585488
 C        -0.594932         1.243874         0.598858
 C        -2.096985         1.118191         0.344028
 C        -1.706500         1.610625         1.674767
 C        -1.344993         3.048268         1.594117
 C        -0.711296         3.772528         2.769575
 C         0.876470         3.406039         2.555667
 O         1.085855         2.897685         1.233860
 C        -0.195522         2.719326         0.529083
 H         1.028451         0.879377         1.056164
 H        -2.575843         1.838782        -0.298785
 H        -2.577404         0.089328         0.459246
 H        -2.051615         1.055891         2.631729
 H        -1.977635         3.774896         1.002229
 H        -0.908262         4.821136         2.693895
 H        -1.015655         3.405518         3.782006
 H         1.436483         4.318204         2.663723
 H         1.306807         2.637996         3.194424
 H        -0.302679         3.317863        -0.458572
