19
Iteration:   838
 O         0.341550         0.344357         0.535732
 C        -0.579242         1.325197         0.575954
 C        -1.982561         0.922281         0.345810
 C        -1.785478         1.727855         1.689806
 C        -1.294844         3.213407         1.534450
 C        -0.633890         3.790433         2.740021
 C         0.888261         3.371359         2.612662
 O         1.025683         2.801073         1.277929
 C        -0.198402         2.711465         0.569452
 H         1.197547         0.717175         1.028473
 H        -2.597266         1.285151        -0.443325
 H        -2.163965        -0.141419         0.431213
 H        -1.874441         1.092080         2.609868
 H        -2.016408         3.912129         1.058160
 H        -0.723945         4.834667         2.787639
 H        -0.994262         3.355630         3.674368
 H         1.586347         4.186869         2.714443
 H         1.061553         2.592153         3.388547
 H        -0.169943         3.193206        -0.457597
