19
Iteration:     1charge 0 multiplicity 1
 O         0.337750         0.279365         0.599890
 C        -0.590578         1.292066         0.664047
 C        -2.022973         1.073513         0.344963
 C        -1.675268         1.655366         1.703650
 C        -1.339215         3.144227         1.549209
 C        -0.579846         3.775598         2.720100
 C         0.822647         3.170031         2.593551
 O         1.047307         3.014399         1.188948
 C        -0.195553         2.760538         0.541959
 H         1.165328         0.662237         0.921945
 H        -2.543345         1.669610        -0.404303
 H        -2.319903         0.029222         0.368244
 H        -1.972083         1.164964         2.623686
 H        -2.146379         3.778502         1.171195
 H        -0.535645         4.861859         2.592760
 H        -1.038441         3.566027         3.690714
 H         1.618664         3.808715         2.985298
 H         0.878028         2.198292         3.105326
 H        -0.147905         3.205564        -0.456819
