19
Iteration:  1432
 O         0.303918         0.306180         0.665099
 C        -0.594658         1.375416         0.618269
 C        -2.040213         1.037967         0.314590
 C        -1.558661         1.537558         1.715560
 C        -1.358506         3.080765         1.538725
 C        -0.611040         3.722357         2.722019
 C         0.844984         3.413808         2.575375
 O         0.980541         2.874099         1.280598
 C        -0.159267         2.783483         0.449880
 H         1.086692         0.846448         0.772577
 H        -2.528185         1.846557        -0.199047
 H        -2.285656         0.057063         0.087140
 H        -1.635888         0.998816         2.600777
 H        -2.183732         3.776854         1.155476
 H        -0.880689         4.836571         2.798567
 H        -0.911648         3.234664         3.688523
 H         1.465564         4.353632         2.619439
 H         1.280537         2.614425         3.271463
 H        -0.084297         3.227902        -0.505379
