19
Iteration:   217charge 0 multiplicity 1
 O         0.340841         0.296578         0.553632
 C        -0.598808         1.362674         0.609997
 C        -2.018290         1.092249         0.291524
 C        -1.744002         1.614361         1.694674
 C        -1.354418         3.095425         1.587219
 C        -0.610140         3.699469         2.851996
 C         0.888890         3.599934         2.409761
 O         1.025692         2.695813         1.328944
 C        -0.148978         2.725703         0.545672
 H         1.067403         0.466067         1.308234
 H        -2.723614         1.642028        -0.416943
 H        -2.089321        -0.049738         0.190831
 H        -2.038211         1.115878         2.575582
 H        -2.213560         3.752023         1.179840
 H        -0.923541         4.764905         2.978921
 H        -0.842354         3.305767         3.868000
 H         1.413089         4.574970         2.176241
 H         1.632172         3.083575         3.150054
 H         0.029386         3.278314        -0.391649
