19
Iteration:  4446
 O         0.225613         0.119982         0.524107
 C        -0.576179         1.305571         0.640982
 C        -2.026984         1.131761         0.209992
 C        -1.603127         1.517171         1.584239
 C        -1.348106         2.975678         1.573438
 C        -0.623714         3.570582         2.886130
 C         0.840918         3.839432         2.459563
 O         1.060322         2.898847         1.406350
 C        -0.063901         2.797903         0.706141
 H         0.420446         0.043468        -0.449319
 H        -2.660420         1.834211        -0.513963
 H        -2.278846         0.035286         0.188551
 H        -1.670346         0.905421         2.503908
 H        -2.108977         3.711162         1.173231
 H        -1.148413         4.494369         3.105063
 H        -0.666013         2.841606         3.760745
 H         1.040356         4.935402         2.206523
 H         1.566513         3.793813         3.248851
 H        -0.103835         3.535677        -0.194347
