19
Iteration:     6
 O         0.334777         0.306994         0.600772
 C        -0.601682         1.283890         0.671977
 C        -2.000674         1.038309         0.321912
 C        -1.690614         1.695471         1.715491
 C        -1.400868         3.189227         1.557223
 C        -0.554229         3.773144         2.724265
 C         0.871362         3.151814         2.602049
 O         1.071122         2.977392         1.187570
 C        -0.211978         2.756636         0.533429
 H         1.166651         0.728833         0.941209
 H        -2.584935         1.579575        -0.456281
 H        -2.136467        -0.057902         0.228806
 H        -1.885898         1.113670         2.632808
 H        -2.269202         3.838930         1.237453
 H        -0.634858         4.874652         2.655539
 H        -1.102402         3.522763         3.652613
 H         1.612647         3.920628         2.902626
 H         0.748611         2.221793         3.209099
 H        -0.192572         3.146510        -0.503619
