19
Iteration:  3151
 O         0.204295         0.021725         0.495759
 C        -0.610654         1.208175         0.730051
 C        -1.977130         1.119478         0.134662
 C        -1.770806         1.621394         1.602711
 C        -1.300498         3.070493         1.599152
 C        -0.535185         3.492888         2.921202
 C         0.782746         3.965893         2.437811
 O         1.149312         2.965687         1.336545
 C        -0.130514         2.699789         0.704272
 H         1.160829         0.323530         0.561628
 H        -2.394353         1.823631        -0.537389
 H        -2.227566         0.004107         0.061099
 H        -2.239321         1.173163         2.486701
 H        -2.049451         3.799063         1.227644
 H        -1.035482         4.378773         3.427183
 H        -0.463061         2.581948         3.636475
 H         0.809296         4.953900         1.915107
 H         1.468319         3.845014         3.234826
 H        -0.033363         3.269193        -0.252703
