19
Iteration:  1198charge 0 multiplicity 1
 O         0.368729         0.083429         0.500619
 C        -0.543414         1.196318         0.761498
 C        -1.936877         1.143102         0.331195
 C        -1.693479         1.706145         1.720884
 C        -1.252769         3.154072         1.560730
 C        -0.686428         3.786539         2.800887
 C         0.764459         3.268485         2.583256
 O         1.004243         3.232894         1.118548
 C        -0.142789         2.650524         0.532900
 H         1.250629         0.152782         1.015984
 H        -2.618000         1.760627        -0.248612
 H        -2.365061         0.206035         0.572418
 H        -2.153398         1.162157         2.513318
 H        -1.986438         3.740803         1.040458
 H        -1.044400         4.790570         2.863689
 H        -1.025139         3.265648         3.717031
 H         1.438940         3.915180         3.158860
 H         0.744125         2.243474         3.022320
 H        -0.157488         2.946318        -0.436013
