19
Iteration:  4454charge 0 multiplicity 1
 O         0.193744         0.150279         0.558415
 C        -0.531955         1.271446         0.504984
 C        -2.080354         1.126924         0.223703
 C        -1.588108         1.469610         1.583069
 C        -1.288951         3.007360         1.617451
 C        -0.607922         3.566658         2.913271
 C         0.784843         3.891974         2.504112
 O         1.126926         2.912768         1.404323
 C        -0.084138         2.771452         0.661659
 H         0.199419        -0.017524        -0.411113
 H        -2.602783         1.717846        -0.539794
 H        -2.268103         0.019191         0.115618
 H        -2.005832         1.004824         2.513618
 H        -2.145934         3.536160         1.214032
 H        -1.080956         4.577002         3.269280
 H        -0.687395         2.984173         3.863945
 H         0.777254         4.894210         1.999227
 H         1.506383         3.687203         3.297842
 H         0.093334         3.414790        -0.183373
