19
Iteration:  2845
 O         0.284772         0.222166         0.659981
 C        -0.600375         1.307400         0.520574
 C        -2.010476         1.016065         0.193539
 C        -1.816309         1.554380         1.571886
 C        -1.350837         3.099653         1.549730
 C        -0.500505         3.500883         2.933956
 C         0.966384         3.763461         2.457739
 O         1.041864         2.927264         1.344790
 C        -0.222357         2.770748         0.593690
 H         1.165616         0.429929         1.090840
 H        -2.458348         1.779769        -0.547801
 H        -2.284477        -0.053844         0.301507
 H        -2.490713         0.958032         2.308277
 H        -2.035730         3.920534         1.319089
 H        -0.874534         4.378078         3.380093
 H        -0.400555         2.726297         3.599605
 H         1.294471         4.744625         2.323624
 H         1.624796         3.424048         3.267212
 H        -0.206741         3.245427        -0.340462
