19
Iteration:  3427
 O         0.325858         0.156681         0.493360
 C        -0.577664         1.195723         0.747032
 C        -2.021373         1.136609         0.140978
 C        -1.784676         1.620965         1.624894
 C        -1.297925         3.157178         1.620499
 C        -0.576943         3.503635         2.870017
 C         0.896512         3.800214         2.446838
 O         1.073151         2.922662         1.317748
 C        -0.210523         2.702354         0.657744
 H         0.965911         0.192733         1.242831
 H        -2.468302         1.796039        -0.536464
 H        -2.346790         0.035699         0.157966
 H        -2.207448         1.076897         2.452321
 H        -2.269442         3.630571         1.274696
 H        -1.204592         4.426874         3.167126
 H        -0.558910         2.657834         3.616570
 H         1.227294         4.835797         2.150713
 H         1.643146         3.603576         3.160536
 H        -0.141653         3.169082        -0.328812
