19
Iteration:  2986charge 0 multiplicity 1
 O         0.278056         0.210903         0.486196
 C        -0.537660         1.205228         0.660102
 C        -2.056982         1.145254         0.204184
 C        -1.729425         1.589692         1.628531
 C        -1.290279         2.991087         1.610863
 C        -0.628762         3.660520         2.925125
 C         0.854364         3.774989         2.435774
 O         1.097215         2.831541         1.346162
 C        -0.142609         2.698694         0.664708
 H         1.145463         0.350671         0.827609
 H        -2.452190         1.934057        -0.479660
 H        -2.534658         0.212489         0.158781
 H        -2.173356         1.053414         2.441502
 H        -2.036998         3.671557         1.188751
 H        -0.997665         4.663983         3.009838
 H        -0.759003         2.966616         3.841511
 H         0.899923         4.818607         1.937853
 H         1.612233         3.763669         3.224305
 H        -0.179164         3.186010        -0.383940
