19
Iteration:  4130
 O         0.215661         0.237422         0.552041
 C        -0.617938         1.249998         0.607949
 C        -2.038342         1.084685         0.195773
 C        -1.723126         1.522026         1.660678
 C        -1.308010         2.989510         1.624548
 C        -0.561531         3.611515         2.882955
 C         0.835340         3.838231         2.485139
 O         1.144856         2.847213         1.377126
 C        -0.106001         2.757471         0.603537
 H         0.980391         0.534444         0.029794
 H        -2.234113         1.863295        -0.582970
 H        -2.225773        -0.019057         0.051850
 H        -2.237801         0.952627         2.423352
 H        -2.093227         3.696356         1.367412
 H        -1.138821         4.486579         3.115690
 H        -0.740915         2.963062         3.742089
 H         0.928415         4.775543         2.025658
 H         1.485278         3.491620         3.241785
 H        -0.104595         3.350225        -0.366052
