19
Iteration:  3251
 O         0.362229         0.259821         0.469272
 C        -0.629369         1.251958         0.627016
 C        -2.069125         1.011542         0.257561
 C        -1.835171         1.593587         1.596612
 C        -1.331432         3.096996         1.589993
 C        -0.564034         3.639949         2.821453
 C         0.917576         3.842620         2.500661
 O         1.062124         2.786766         1.416434
 C        -0.136443         2.683937         0.638663
 H         1.224466         0.619090         0.806164
 H        -2.564722         1.629970        -0.545491
 H        -2.156234        -0.009724         0.135344
 H        -2.452429         1.214891         2.450017
 H        -2.086775         3.866257         1.320170
 H        -1.137582         4.374728         3.496238
 H        -0.563149         2.775261         3.563782
 H         1.231883         4.810287         1.978243
 H         1.631445         3.486123         3.213071
 H         0.008537         3.131559        -0.338058
