19
Iteration:  3423charge 0 multiplicity 1
 O         0.308456         0.174703         0.508355
 C        -0.603005         1.197420         0.710675
 C        -1.987716         1.110694         0.163904
 C        -1.763331         1.613473         1.623132
 C        -1.318504         3.160379         1.637253
 C        -0.556328         3.518718         2.916174
 C         0.869990         3.817367         2.412965
 O         1.055527         2.895829         1.317510
 C        -0.186823         2.697711         0.618647
 H         0.883092         0.173518         1.283270
 H        -2.323668         1.865589        -0.630230
 H        -2.328077         0.110260         0.098018
 H        -2.183544         0.964962         2.416955
 H        -2.203222         3.745800         1.289396
 H        -1.129990         4.345952         3.239400
 H        -0.600703         2.753840         3.706186
 H         1.191309         4.897778         2.260792
 H         1.662404         3.534375         3.181684
 H        -0.092655         3.183795        -0.421334
