19
Iteration:   327
 O         0.153424         0.146991         0.604778
 C        -0.613448         1.233420         0.572498
 C        -2.069509         1.295135         0.145572
 C        -1.683366         1.519703         1.607235
 C        -1.261461         2.992277         1.734541
 C        -0.569081         3.577634         2.905049
 C         0.762605         3.943290         2.234648
 O         1.210659         2.790467         1.409970
 C        -0.062936         2.640464         0.683079
 H         0.945771         0.380013         1.217315
 H        -2.485099         2.109762        -0.553369
 H        -2.458369         0.314034        -0.009512
 H        -2.151793         0.810956         2.338026
 H        -2.213882         3.607637         1.433873
 H        -1.165432         4.271011         3.481005
 H        -0.399915         2.759518         3.624809
 H         0.604644         4.904129         1.572823
 H         1.583516         4.197108         2.953222
 H         0.035715         3.307331        -0.247502
