19
Iteration:  3253charge 0 multiplicity 1
 O         0.362575         0.257012         0.465057
 C        -0.603932         1.260819         0.641357
 C        -2.070395         1.018481         0.258876
 C        -1.835750         1.585595         1.618351
 C        -1.322509         3.105019         1.595970
 C        -0.553938         3.636247         2.812711
 C         0.909054         3.839037         2.503209
 O         1.046971         2.786688         1.408855
 C        -0.151914         2.678216         0.628322
 H         1.181482         0.593311         0.833910
 H        -2.563361         1.604862        -0.593525
 H        -2.187851        -0.012356         0.084221
 H        -2.481349         1.187267         2.390743
 H        -2.029031         3.872142         1.326252
 H        -1.127948         4.338421         3.445371
 H        -0.596776         2.806220         3.486062
 H         1.266285         4.805923         2.037246
 H         1.648104         3.546260         3.304242
 H         0.039131         3.168544        -0.367617
