19
Iteration:  4364charge 0 multiplicity 1
 O         0.337894         0.226571         0.544376
 C        -0.568651         1.277570         0.576147
 C        -2.005574         1.068377         0.203310
 C        -1.690435         1.636943         1.624707
 C        -1.296089         3.135494         1.645346
 C        -0.589129         3.481389         2.940673
 C         0.836809         3.758143         2.399656
 O         1.026873         2.826556         1.333445
 C        -0.215752         2.811080         0.587887
 H         0.563480        -0.191201         1.388459
 H        -2.326555         1.691479        -0.559634
 H        -2.222502         0.026649         0.052926
 H        -1.843621         1.005159         2.496163
 H        -2.009245         3.918702         1.578581
 H        -1.081045         4.416393         3.421767
 H        -0.712700         2.697459         3.734369
 H         0.849011         4.767921         1.921221
 H         1.649661         3.495561         3.132109
 H        -0.205320         3.389672        -0.315045
