19
Iteration:   177
 O         0.428647         0.238770         0.561635
 C        -0.618393         1.217905         0.591130
 C        -2.115438         1.053608         0.303391
 C        -1.816705         1.641977         1.634158
 C        -1.345720         3.106741         1.591305
 C        -0.584528         3.759182         2.864354
 C         0.946451         3.548860         2.554941
 O         1.020228         2.846460         1.253825
 C        -0.141440         2.717195         0.568294
 H         1.220212         0.838099         0.508214
 H        -2.682790         1.601324        -0.416820
 H        -2.358299         0.023684         0.336058
 H        -2.220838         1.166323         2.579238
 H        -2.079358         3.791063         1.312293
 H        -0.799068         4.847867         2.857985
 H        -0.900602         3.342627         3.809552
 H         1.471237         4.479289         2.461456
 H         1.472057         3.037570         3.314391
 H        -0.045378         3.052346        -0.468830
