19
Iteration:  1057charge 0 multiplicity 1
 O         0.275746         0.116038         0.586432
 C        -0.483248         1.315632         0.587950
 C        -1.918259         1.137399         0.426332
 C        -1.542976         1.637903         1.739648
 C        -1.361262         3.117530         1.533601
 C        -0.687936         3.773197         2.695311
 C         0.709675         3.193175         2.650271
 O         1.054954         3.087745         1.189450
 C        -0.216980         2.854425         0.455092
 H         0.936856         0.111936         1.321304
 H        -2.399330         1.811848        -0.177488
 H        -2.141713         0.155653         0.209913
 H        -1.667596         1.110085         2.670934
 H        -2.327733         3.672784         1.344734
 H        -0.692069         4.859075         2.680867
 H        -1.135572         3.550638         3.663694
 H         1.557285         3.758994         3.030356
 H         0.839265         2.193572         3.026897
 H        -0.099166         3.266882        -0.618664
