19
Iteration:  1973charge 0 multiplicity 1
 O         0.371022         0.137802         0.600162
 C        -0.516648         1.269194         0.634367
 C        -1.905808         1.042758         0.301541
 C        -1.671222         1.586741         1.704751
 C        -1.384546         3.119158         1.682664
 C        -0.585805         3.871773         2.721210
 C         0.795712         3.158016         2.600550
 O         0.947832         3.207823         1.150796
 C        -0.243001         2.783383         0.582021
 H         1.280455         0.273373         0.454229
 H        -2.337898         1.855027        -0.394845
 H        -2.259881         0.114574         0.099432
 H        -1.941210         1.069256         2.552870
 H        -2.251050         3.710259         1.452833
 H        -0.425828         4.936142         2.435729
 H        -1.112243         3.900890         3.710902
 H         1.661478         3.534904         3.140659
 H         0.739410         2.049350         2.856002
 H        -0.171855         3.158386        -0.414789
