19
Iteration:  4992
 O         0.290010         0.177968         0.311470
 C        -0.567784         1.218623         0.651844
 C        -1.953255         1.150908         0.191797
 C        -1.700487         1.580477         1.719194
 C        -1.300508         3.042402         1.658608
 C        -0.560016         3.586716         2.871454
 C         0.742570         3.902555         2.355696
 O         1.024334         2.809778         1.507042
 C        -0.174485         2.672503         0.686900
 H         1.186862         0.469656         0.627007
 H        -2.335945         2.037400        -0.337143
 H        -2.155081         0.071684        -0.036981
 H        -2.318143         1.042797         2.551664
 H        -2.157388         3.776265         1.459342
 H        -1.039333         4.302932         3.526026
 H        -0.413082         2.687991         3.535675
 H         0.805132         4.916487         1.792298
 H         1.715427         3.897196         3.118524
 H        -0.003940         3.229707        -0.324047
