19
Iteration:   961
 O         0.393476         0.288840         0.735633
 C        -0.582407         1.309977         0.592188
 C        -2.121781         1.091645         0.377805
 C        -1.640063         1.622380         1.618691
 C        -1.372609         3.068124         1.489482
 C        -0.640163         3.591224         2.717195
 C         0.882831         3.263452         2.548052
 O         1.065072         3.076465         1.207201
 C        -0.150251         2.769143         0.506965
 H         0.791778         0.611653         1.502097
 H        -2.663082         1.883420        -0.284387
 H        -2.546361         0.112028         0.285010
 H        -1.840195         1.039827         2.501212
 H        -2.082373         3.833640         1.062733
 H        -0.855568         4.727579         2.799523
 H        -1.071011         3.315239         3.640066
 H         1.423181         4.147053         2.866812
 H         1.264599         2.385882         3.201779
 H        -0.108975         3.604777        -0.238437
