19
Iteration:  2328charge 0 multiplicity 1
 O         0.472382         0.412227         0.569490
 C        -0.581533         1.247275         0.658564
 C        -2.002074         1.130365         0.305651
 C        -1.694746         1.549215         1.743789
 C        -1.373019         3.094757         1.587432
 C        -0.609043         3.803946         2.731706
 C         0.887188         3.324237         2.569780
 O         0.999704         2.807069         1.235666
 C        -0.298141         2.729515         0.563675
 H         1.134119         1.087577         0.716843
 H        -2.467845         1.774331        -0.504262
 H        -2.389583         0.126376         0.399511
 H        -2.149013         0.890174         2.513548
 H        -2.096926         3.816963         1.172871
 H        -0.700140         4.891865         2.426398
 H        -1.214575         3.546311         3.592473
 H         1.579795         4.157270         2.599730
 H         1.223480         2.553455         3.324183
 H        -0.263079         3.187733        -0.416068
