19
Iteration:  3135charge 0 multiplicity 1
 O         0.227906         0.093548         0.561213
 C        -0.523516         1.235474         0.624319
 C        -2.022343         1.190154         0.234730
 C        -1.736041         1.565170         1.645251
 C        -1.321569         3.065312         1.593299
 C        -0.592236         3.443547         2.844781
 C         0.862235         3.935757         2.371925
 O         1.060580         2.949088         1.443131
 C        -0.114661         2.716405         0.578404
 H         1.040692         0.239126         1.117631
 H        -2.370072         1.925525        -0.559183
 H        -2.486774         0.308922        -0.002770
 H        -2.267972         1.044840         2.464493
 H        -2.076075         3.810774         1.252356
 H        -1.143483         3.857701         3.641103
 H        -0.313406         2.513067         3.298853
 H         0.797474         4.982979         1.965872
 H         1.743338         3.786618         3.107875
 H        -0.013251         3.119458        -0.430591
