19
Iteration:  4340
 O         0.337854         0.171982         0.537732
 C        -0.592185         1.234919         0.601058
 C        -2.091384         1.194461         0.198682
 C        -1.731661         1.586473         1.602934
 C        -1.319718         3.027845         1.598879
 C        -0.581002         3.444954         2.932966
 C         0.850293         3.851708         2.412573
 O         1.100586         2.984683         1.332502
 C        -0.109948         2.705922         0.623054
 H         0.757406        -0.017225         1.426346
 H        -2.669123         1.805915        -0.519400
 H        -2.461257         0.166941         0.354908
 H        -2.274187         1.015464         2.414592
 H        -2.084290         3.812621         1.349837
 H        -1.059870         4.156288         3.645513
 H        -0.597148         2.514068         3.589352
 H         0.824857         4.874239         1.992847
 H         1.661358         3.574954         3.167752
 H        -0.048531         3.133323        -0.360087
