19
Iteration:  3015
 O         0.195360         0.163541         0.547801
 C        -0.533863         1.281388         0.570780
 C        -1.996849         1.018700         0.237980
 C        -1.677629         1.613213         1.546541
 C        -1.350591         3.093243         1.594436
 C        -0.545193         3.640922         2.882190
 C         0.951672         3.783910         2.543008
 O         1.027784         2.884894         1.353066
 C        -0.212037         2.771726         0.554032
 H         0.992504         0.035399         1.111934
 H        -2.609896         1.588184        -0.433883
 H        -2.220343        -0.045552         0.200537
 H        -1.653546         0.972630         2.511145
 H        -2.218841         3.757103         1.328488
 H        -1.115010         4.434120         3.389893
 H        -0.653550         2.809648         3.666329
 H         1.197372         4.774457         2.264588
 H         1.348074         3.355684         3.469313
 H        -0.115745         3.204205        -0.442212
