19
Iteration:  1939
 O         0.308950         0.279814         0.571307
 C        -0.525779         1.245704         0.683467
 C        -2.006853         1.006572         0.323164
 C        -1.725919         1.620976         1.730595
 C        -1.296190         3.134153         1.556068
 C        -0.631087         3.650256         2.738819
 C         0.870679         3.328574         2.573799
 O         1.043623         3.200086         1.162627
 C        -0.168900         2.694066         0.565127
 H         1.087388         0.387874         1.069594
 H        -2.439289         1.798767        -0.369361
 H        -2.435192        -0.025442         0.209129
 H        -2.075071         1.254893         2.749547
 H        -2.134652         3.689704         1.201163
 H        -0.882615         4.679780         2.888176
 H        -1.149776         3.065725         3.526844
 H         1.580586         4.056108         2.939842
 H         0.960427         2.308806         3.091501
 H        -0.190591         3.050581        -0.475116
