19
Iteration:  2184
 O         0.430859         0.411800         0.667344
 C        -0.566207         1.305270         0.668132
 C        -1.976904         1.052752         0.230231
 C        -1.662001         1.557602         1.613857
 C        -1.409311         3.095385         1.562644
 C        -0.581230         3.786269         2.805198
 C         0.909365         3.301049         2.548018
 O         0.953505         2.849739         1.231253
 C        -0.318856         2.770407         0.546420
 H         1.230198         0.953697         0.791562
 H        -2.591429         1.739088        -0.390051
 H        -2.319031        -0.033894         0.242152
 H        -2.031965         1.083732         2.566258
 H        -2.266317         3.699998         1.268479
 H        -0.582774         4.946204         2.915306
 H        -0.787210         3.258860         3.719417
 H         1.711888         4.108862         2.569197
 H         1.055472         2.466823         3.285924
 H        -0.159288         3.264192        -0.408682
