19
Iteration:  3809charge 0 multiplicity 1
 O         0.348790         0.184317         0.415390
 C        -0.615468         1.285997         0.692770
 C        -1.998237         1.147595         0.243942
 C        -1.798606         1.597748         1.626384
 C        -1.376495         3.061012         1.678528
 C        -0.603550         3.540631         2.900230
 C         0.816548         3.835693         2.313419
 O         1.079998         2.816559         1.432585
 C        -0.099309         2.690809         0.692391
 H         1.165690         0.339457         0.925849
 H        -2.335282         1.981349        -0.545020
 H        -2.149968         0.050881        -0.056702
 H        -2.354100         1.050614         2.391828
 H        -2.096103         3.825545         1.405792
 H        -0.918887         4.574284         3.146873
 H        -0.616060         2.757163         3.600317
 H         0.904753         4.723892         1.666310
 H         1.594371         3.757333         3.027667
 H         0.193775         3.100028        -0.263264
