19
Iteration:  2294charge 0 multiplicity 1
 O         0.302287         0.249523         0.495408
 C        -0.593409         1.287770         0.633214
 C        -1.990035         0.967508         0.383301
 C        -1.584728         1.556435         1.717438
 C        -1.337261         3.131511         1.562162
 C        -0.624438         3.838012         2.746633
 C         0.787650         3.202283         2.648787
 O         1.054396         3.184868         1.229037
 C        -0.187204         2.744439         0.486776
 H         1.123940         0.384805         1.075557
 H        -2.712756         1.411145        -0.445448
 H        -2.212223         0.012501         0.581607
 H        -1.925674         1.012681         2.534165
 H        -2.088497         3.821773         1.215955
 H        -0.589031         4.962846         2.623568
 H        -1.214399         3.754412         3.626702
 H         1.621260         3.769231         3.132910
 H         0.809698         2.176258         3.090256
 H        -0.015650         3.115652        -0.539972
