19
Iteration:  2315charge 0 multiplicity 1
 O         0.453850         0.302951         0.519605
 C        -0.550055         1.311799         0.654661
 C        -1.957644         1.022721         0.337629
 C        -1.724909         1.654614         1.710207
 C        -1.403282         3.099625         1.615876
 C        -0.638112         3.797770         2.700730
 C         0.835732         3.301103         2.576868
 O         1.031815         2.870145         1.191753
 C        -0.286901         2.769225         0.620493
 H         1.322611         0.602877         0.910444
 H        -2.559368         1.808632        -0.357976
 H        -2.248074         0.056213         0.191828
 H        -1.848498         1.266738         2.662777
 H        -2.247697         3.662169         1.212607
 H        -0.665471         4.885641         2.544319
 H        -0.895446         3.723076         3.709903
 H         1.622641         4.025788         2.913961
 H         0.933137         2.432515         3.215707
 H        -0.331999         3.377714        -0.355158
