19
Iteration:  2140
 O         0.284846         0.223350         0.488990
 C        -0.594982         1.304129         0.691558
 C        -2.081532         0.965019         0.389947
 C        -1.655120         1.624460         1.727365
 C        -1.386992         3.113056         1.465327
 C        -0.629707         3.699823         2.742022
 C         0.877947         3.295996         2.658457
 O         1.062982         3.252079         1.229345
 C        -0.059732         2.738320         0.544221
 H         1.162031         0.368628         0.969046
 H        -2.566901         1.469634        -0.402450
 H        -2.054145        -0.217312         0.352875
 H        -1.973899         1.031503         2.682450
 H        -2.152442         3.734868         0.997206
 H        -0.835060         4.834802         2.713342
 H        -1.142003         3.182631         3.543340
 H         1.663622         3.907424         3.211366
 H         0.866229         2.212474         2.901693
 H        -0.021915         3.092167        -0.460191
