19
Iteration:  1631charge 0 multiplicity 1
 O         0.290294         0.220549         0.712405
 C        -0.513773         1.368929         0.594455
 C        -1.961991         1.050476         0.344750
 C        -1.672188         1.601464         1.655498
 C        -1.350271         3.026069         1.587684
 C        -0.577231         3.741216         2.722056
 C         0.878011         3.256724         2.581968
 O         0.980863         3.138684         1.140246
 C        -0.230795         2.787756         0.481072
 H         0.832130         0.307399         1.449155
 H        -2.566677         1.610206        -0.386571
 H        -2.071000        -0.026713         0.252686
 H        -1.648875         0.970329         2.515184
 H        -2.240808         3.639731         1.307634
 H        -0.634462         4.874008         2.736762
 H        -1.118234         3.374140         3.722381
 H         1.585137         3.945049         3.028987
 H         0.986768         2.376354         3.186692
 H        -0.175463         3.296475        -0.440404
