19
Iteration:   827
 O         0.418171         0.285993         0.510876
 C        -0.656664         1.225809         0.603611
 C        -2.085483         1.021129         0.349716
 C        -1.769724         1.641385         1.674010
 C        -1.306879         3.140778         1.519860
 C        -0.594932         3.817233         2.788846
 C         0.834638         3.427313         2.641859
 O         1.072351         2.849083         1.275244
 C        -0.160626         2.732628         0.526219
 H         1.235755         0.903149         0.742807
 H        -2.607544         1.517454        -0.443658
 H        -2.304345        -0.005912         0.576999
 H        -2.123324         1.430108         2.711294
 H        -2.071402         3.836718         1.100087
 H        -0.777473         4.841384         2.793218
 H        -1.124180         3.416740         3.662226
 H         1.547834         4.226847         2.735806
 H         1.165799         2.647314         3.367787
 H         0.236365         3.042205        -0.446193
