19
Iteration:  2563
 O         0.342684         0.206148         0.585010
 C        -0.538427         1.255334         0.729161
 C        -2.045001         1.148276         0.358517
 C        -1.692674         1.559031         1.730401
 C        -1.370798         3.017970         1.525291
 C        -0.638248         3.719316         2.707233
 C         0.831635         3.226671         2.526897
 O         1.113861         3.219347         1.200917
 C        -0.198020         2.788276         0.518629
 H         1.093983         0.519541         1.053386
 H        -2.515806         1.863481        -0.296837
 H        -2.251601         0.130504         0.218110
 H        -1.833893         0.908219         2.637626
 H        -2.287767         3.603426         1.264118
 H        -0.754659         4.831426         2.482128
 H        -1.086497         3.331598         3.729380
 H         1.482746         3.953454         3.109839
 H         1.029924         2.305060         3.112645
 H        -0.209857         3.271718        -0.411715
