19
Iteration:  2672charge 0 multiplicity 1
 O         0.306684         0.222427         0.452267
 C        -0.642343         1.248227         0.655837
 C        -2.002309         1.095252         0.180521
 C        -1.752241         1.551422         1.636675
 C        -1.285797         3.076937         1.631454
 C        -0.487108         3.659608         2.893542
 C         0.849018         3.874208         2.354777
 O         0.975304         2.758629         1.470578
 C        -0.128599         2.716793         0.665677
 H         1.106641         0.442845         0.912159
 H        -2.523330         1.624941        -0.659274
 H        -2.485509         0.034304         0.062884
 H        -2.002745         0.825162         2.517868
 H        -2.078424         3.779375         1.309742
 H        -1.189535         4.417873         3.371826
 H        -0.410656         2.766096         3.656643
 H         0.937586         4.757686         1.698217
 H         1.641123         3.784658         3.085024
 H         0.033337         3.291942        -0.304530
