19
Iteration:  4734charge 0 multiplicity 1
 O         0.249078         0.118251         0.365931
 C        -0.549505         1.295962         0.518083
 C        -2.050931         1.171219         0.188054
 C        -1.679013         1.481850         1.598949
 C        -1.279364         2.928601         1.687277
 C        -0.558877         3.667425         3.008062
 C         0.783135         3.938049         2.416028
 O         1.119628         2.829014         1.491253
 C        -0.126332         2.748835         0.599209
 H         0.454063        -0.041908         1.307371
 H        -2.757213         1.930819        -0.122434
 H        -2.324688         0.210348        -0.083691
 H        -1.847691         0.659921         2.478337
 H        -2.155128         3.535998         1.430973
 H        -1.183165         4.483296         3.167635
 H        -0.742528         3.024883         3.840703
 H         0.766955         4.778112         1.762233
 H         1.553899         4.095607         3.162316
 H         0.024605         3.471061        -0.217023
