19
Iteration:  4768charge 0 multiplicity 1
 O         0.256085         0.124264         0.303096
 C        -0.564499         1.239302         0.597523
 C        -1.994662         1.190510         0.213468
 C        -1.706678         1.483449         1.692285
 C        -1.288053         3.021937         1.651676
 C        -0.592118         3.641204         2.908871
 C         0.807124         3.956045         2.438159
 O         1.068949         2.807548         1.489044
 C        -0.158642         2.703036         0.651130
 H         1.200990         0.180365         0.598406
 H        -2.505900         1.983101        -0.289203
 H        -2.332559         0.186240         0.062178
 H        -2.069033         0.968282         2.685264
 H        -2.136398         3.621962         1.245201
 H        -1.121733         4.492987         3.334088
 H        -0.562374         2.799735         3.554980
 H         0.836847         4.939253         2.014870
 H         1.653447         3.886002         3.190510
 H        -0.044309         3.293285        -0.275242
