19
Iteration:   438charge 0 multiplicity 1
 O         0.378827         0.229780         0.642846
 C        -0.552502         1.238432         0.693513
 C        -1.941248         1.026934         0.242733
 C        -1.673926         1.668057         1.691109
 C        -1.318747         3.135240         1.586549
 C        -0.526654         3.793589         2.738213
 C         0.830997         3.185108         2.634963
 O         0.951049         3.059461         1.101059
 C        -0.302577         2.815837         0.579534
 H         1.158906         0.666641         0.980401
 H        -2.403323         1.630939        -0.492166
 H        -2.418599         0.027801         0.412363
 H        -2.200199         1.229846         2.561418
 H        -2.287064         3.749321         1.410051
 H        -0.351963         4.809529         2.430936
 H        -1.092441         3.705504         3.622831
 H         1.766760         3.658478         3.035876
 H         0.895699         2.208620         3.147897
 H        -0.379044         3.427116        -0.383809
