19
Iteration:  2389charge 0 multiplicity 1
 O         0.225990         0.100979         0.515761
 C        -0.554076         1.263064         0.737634
 C        -1.940833         1.040063         0.348092
 C        -1.647746         1.598732         1.690336
 C        -1.314103         3.172595         1.540063
 C        -0.688048         3.673628         2.807086
 C         0.839528         3.421629         2.580333
 O         1.086385         3.187073         1.203924
 C        -0.196825         2.750457         0.519296
 H         1.173540         0.169964         0.739019
 H        -2.440484         1.737797        -0.392819
 H        -2.188078         0.088001         0.284205
 H        -1.623736         0.992312         2.533299
 H        -2.157234         3.764368         1.090737
 H        -0.887788         4.732057         2.876159
 H        -1.074324         3.272992         3.758023
 H         1.685368         4.100957         2.915414
 H         0.868290         2.482541         3.178598
 H        -0.181132         3.112821        -0.542365
