19
Iteration:  3407
 O         0.232775         0.191309         0.618864
 C        -0.513319         1.306214         0.559875
 C        -1.993055         1.138202         0.130081
 C        -1.720446         1.575193         1.597389
 C        -1.304175         3.000146         1.675915
 C        -0.573901         3.596968         2.997478
 C         0.811703         3.755462         2.405655
 O         1.035879         2.851541         1.315856
 C        -0.151008         2.740445         0.584117
 H         0.838781         0.369758         1.331759
 H        -2.471155         1.811318        -0.576542
 H        -2.331393         0.024748         0.104046
 H        -2.084462         1.092604         2.497673
 H        -2.061859         3.727990         1.290164
 H        -0.757564         4.628046         3.474200
 H        -0.391610         2.729762         3.626141
 H         0.841581         4.640347         1.774520
 H         1.721851         3.760916         3.088197
 H        -0.125708         3.267115        -0.338137
