19
Iteration:   819
 O         0.432006         0.258068         0.495771
 C        -0.647663         1.153216         0.661881
 C        -2.153497         1.090255         0.370317
 C        -1.695283         1.666914         1.675243
 C        -1.336600         3.094333         1.472821
 C        -0.626527         3.800741         2.770668
 C         0.847698         3.421503         2.635585
 O         1.112723         2.907167         1.316029
 C        -0.115902         2.706243         0.522377
 H         1.248256         0.912041         0.641351
 H        -2.750739         1.699580        -0.481860
 H        -2.582008        -0.001885         0.396823
 H        -2.307057         1.233569         2.530045
 H        -2.175639         3.750603         1.183093
 H        -0.779730         4.964003         2.714421
 H        -1.041754         3.491916         3.734575
 H         1.434329         4.323755         2.721301
 H         1.211235         2.642122         3.317067
 H        -0.081600         3.232287        -0.420916
