19
Iteration:   850
 O         0.331649         0.341931         0.591389
 C        -0.629798         1.329502         0.636708
 C        -1.951046         0.940687         0.362185
 C        -1.680726         1.689754         1.621961
 C        -1.410669         3.164142         1.483818
 C        -0.577405         3.758851         2.728389
 C         0.857181         3.275384         2.561778
 O         1.050307         2.791068         1.287427
 C        -0.219996         2.883255         0.552222
 H         0.974350         0.564737         1.239697
 H        -2.539174         1.352393        -0.492146
 H        -1.905002        -0.157281         0.632569
 H        -1.930843         1.246027         2.665778
 H        -2.200151         3.878846         1.152762
 H        -0.639291         4.852737         2.673530
 H        -1.061055         3.486349         3.656323
 H         1.506982         4.116344         2.709919
 H         1.287457         2.498736         3.236563
 H        -0.108333         3.629442        -0.274476
