19
Iteration:   661charge 0 multiplicity 1
 O         0.428573         0.397642         0.776050
 C        -0.591240         1.355471         0.712386
 C        -1.995899         1.101311         0.249218
 C        -1.799928         1.611719         1.653995
 C        -1.453870         3.099259         1.621148
 C        -0.523577         3.768710         2.701845
 C         0.833273         3.047470         2.581209
 O         1.063939         2.978013         1.120803
 C        -0.229726         2.788871         0.510127
 H         1.276866         0.965651         0.779059
 H        -2.538038         1.530725        -0.560758
 H        -2.136736        -0.008547         0.270531
 H        -2.050077         0.925126         2.500994
 H        -2.177134         3.819397         1.217473
 H        -0.408116         4.754020         2.416708
 H        -0.832687         3.817907         3.751930
 H         1.606510         3.747384         3.001820
 H         0.889373         2.058863         3.057566
 H        -0.230295         3.208639        -0.508552
