19
Iteration:  4310
 O         0.169953         0.076507         0.564593
 C        -0.542044         1.225407         0.642737
 C        -1.923974         1.216426         0.106920
 C        -1.823573         1.537626         1.662474
 C        -1.353615         3.012830         1.622272
 C        -0.537740         3.468265         2.987610
 C         0.820107         3.895008         2.406332
 O         1.123733         3.013147         1.303302
 C        -0.104233         2.713645         0.672244
 H         1.096354         0.277455         0.419708
 H        -2.537472         1.822336        -0.468816
 H        -2.211357         0.208463        -0.100725
 H        -2.273312         0.910703         2.458874
 H        -2.054879         3.763140         1.358864
 H        -0.910140         4.278452         3.721764
 H        -0.524266         2.546763         3.611771
 H         0.782892         4.912538         1.916927
 H         1.790781         3.967714         2.974809
 H        -0.128784         3.139506        -0.348763
