19
Iteration:  1657
 O         0.326212         0.066208         0.581315
 C        -0.592180         1.163954         0.728946
 C        -2.061966         0.950780         0.283539
 C        -1.702183         1.649078         1.700345
 C        -1.309278         3.120893         1.590488
 C        -0.586136         3.749559         2.798739
 C         0.839669         3.305171         2.578149
 O         1.085477         3.369438         1.121169
 C        -0.164003         2.811035         0.546237
 H         1.020740         0.207405         1.164716
 H        -2.393867         1.388160        -0.632197
 H        -2.307431        -0.146791         0.232082
 H        -2.286348         1.108600         2.490500
 H        -2.160142         3.833292         1.246008
 H        -0.474190         4.837571         2.759112
 H        -1.133456         3.561070         3.725220
 H         1.471590         3.856401         3.294108
 H         0.853640         2.249014         2.919951
 H        -0.111063         3.238418        -0.529161
