19
Iteration:  3553
 O         0.248665         0.165351         0.408579
 C        -0.580669         1.218335         0.690882
 C        -1.986803         1.111565         0.208692
 C        -1.711119         1.539574         1.623929
 C        -1.279805         3.111890         1.597756
 C        -0.589720         3.585670         2.854702
 C         0.813751         3.877430         2.389388
 O         1.044341         2.858871         1.521798
 C        -0.120613         2.696850         0.646574
 H         1.109021         0.487785         0.780389
 H        -2.509268         1.823137        -0.465087
 H        -2.522988         0.101848         0.056124
 H        -2.186182         1.161857         2.525764
 H        -1.935336         3.813856         1.111020
 H        -1.174847         4.335596         3.400140
 H        -0.531422         2.666735         3.459654
 H         0.879954         4.787793         1.888950
 H         1.660095         3.747922         3.151310
 H         0.131285         3.079924        -0.299097
