19
Iteration:  2861
 O         0.264430         0.145820         0.568740
 C        -0.577609         1.249174         0.713524
 C        -1.954613         1.110119         0.143524
 C        -1.819111         1.655736         1.605236
 C        -1.341567         3.067794         1.679111
 C        -0.576190         3.536376         2.901790
 C         0.869913         3.715260         2.455474
 O         1.089074         2.935672         1.234517
 C        -0.148422         2.737008         0.634939
 H         1.102264         0.516516         0.842170
 H        -2.372366         1.583108        -0.705964
 H        -2.172749         0.036196         0.124913
 H        -2.113701         1.210023         2.517015
 H        -2.086468         3.797139         1.297490
 H        -1.067046         4.459373         3.340813
 H        -0.718221         2.694507         3.689779
 H         0.985157         4.870627         2.257503
 H         1.665323         3.445003         3.187347
 H        -0.158473         3.317233        -0.373970
