19
Iteration:  1940
 O         0.305827         0.274387         0.567973
 C        -0.525408         1.241800         0.686501
 C        -1.999071         1.007279         0.327325
 C        -1.723635         1.620211         1.730911
 C        -1.302675         3.137659         1.559090
 C        -0.624935         3.650338         2.731872
 C         0.861873         3.327178         2.575183
 O         1.043847         3.199443         1.156807
 C        -0.175036         2.699767         0.572859
 H         1.138407         0.375558         1.048143
 H        -2.406097         1.795047        -0.374232
 H        -2.412667         0.032650         0.226237
 H        -2.078606         1.259759         2.682824
 H        -2.145215         3.668395         1.206136
 H        -0.869184         4.733988         2.894426
 H        -1.145034         3.075885         3.549872
 H         1.570640         4.040458         2.974558
 H         0.947911         2.304119         3.061914
 H        -0.175279         3.030456        -0.444614
