19
Iteration:  2064charge 0 multiplicity 1
 O         0.417777         0.332160         0.554889
 C        -0.597300         1.303149         0.550838
 C        -2.038026         1.038389         0.330195
 C        -1.774433         1.610791         1.696014
 C        -1.346583         3.042992         1.567674
 C        -0.607319         3.756104         2.684638
 C         0.916730         3.307753         2.589576
 O         1.089295         2.964022         1.285310
 C        -0.245905         2.800016         0.588351
 H         1.096203         0.839711         1.015188
 H        -2.692131         1.368408        -0.386259
 H        -2.163439        -0.128870         0.399552
 H        -2.089293         1.084470         2.687331
 H        -2.183261         3.713521         1.278898
 H        -0.902815         4.928625         2.680952
 H        -1.209284         3.379318         3.546374
 H         1.567538         4.163482         2.947825
 H         1.124729         2.473077         3.283989
 H        -0.191547         3.229583        -0.358008
