19
Iteration:  2759charge 0 multiplicity 1
 O         0.220956         0.069567         0.533007
 C        -0.574622         1.257217         0.625111
 C        -2.043644         1.140461         0.121600
 C        -1.787026         1.586393         1.576146
 C        -1.283667         2.988225         1.629239
 C        -0.565897         3.536629         3.009393
 C         0.867274         3.875688         2.407608
 O         1.161978         2.969541         1.324932
 C        -0.146546         2.724184         0.667971
 H         0.849610         0.186045         1.252455
 H        -2.589483         1.742016        -0.678615
 H        -2.181955        -0.006391        -0.031476
 H        -2.120600         1.168681         2.632818
 H        -2.098058         3.681763         1.322587
 H        -1.198155         4.401637         3.257728
 H        -0.531819         2.881106         3.915771
 H         0.846824         4.999305         1.931635
 H         1.650859         3.766730         3.168110
 H        -0.191188         3.336780        -0.311638
