19
Iteration:   367charge 0 multiplicity 1
 O         0.309015         0.149719         0.545326
 C        -0.596386         1.215768         0.659073
 C        -1.996517         1.086107         0.225183
 C        -1.712791         1.722974         1.626910
 C        -1.325285         3.172687         1.644788
 C        -0.575239         3.575835         2.876491
 C         0.861948         3.749220         2.457391
 O         1.044259         2.837272         1.263241
 C        -0.190418         2.706212         0.615711
 H         1.011560         0.462118         1.063524
 H        -2.445836         1.503570        -0.747355
 H        -2.457354         0.159260         0.553589
 H        -2.357432         1.238835         2.301102
 H        -1.906992         3.945504         1.112759
 H        -0.993843         4.427620         3.504076
 H        -0.443257         2.636503         3.497822
 H         1.260926         4.692372         2.246792
 H         1.536732         3.304446         3.270025
 H        -0.290999         3.184710        -0.375262
