19
Iteration:  1819charge 0 multiplicity 1
 O         0.232382         0.197900         0.559687
 C        -0.494314         1.352402         0.636580
 C        -1.935532         0.991189         0.399620
 C        -1.591816         1.599890         1.732422
 C        -1.372920         3.099997         1.537481
 C        -0.666867         3.795851         2.685724
 C         0.766750         3.224433         2.642867
 O         1.076213         3.084801         1.166770
 C        -0.212863         2.850143         0.533515
 H         1.129998         0.266709         0.885277
 H        -2.306171         1.561600        -0.433627
 H        -1.985242        -0.207440         0.353030
 H        -1.786073         1.171940         2.831860
 H        -2.181743         3.800061         1.245529
 H        -0.674500         4.959903         2.575667
 H        -1.201813         3.547390         3.724234
 H         1.619904         3.792126         2.932916
 H         0.858562         2.231400         3.182548
 H        -0.173433         3.489684        -0.313692
