19
Iteration:  3016charge 0 multiplicity 1
 O         0.195751         0.173842         0.550239
 C        -0.536595         1.286753         0.571298
 C        -2.000910         1.015187         0.239237
 C        -1.676540         1.605964         1.549896
 C        -1.350842         3.088597         1.584489
 C        -0.541119         3.638453         2.881343
 C         0.954391         3.783360         2.547857
 O         1.022624         2.887703         1.350045
 C        -0.207311         2.767195         0.555764
 H         0.995034         0.000989         1.128432
 H        -2.602063         1.581272        -0.426665
 H        -2.246870         0.014119         0.212955
 H        -1.657876         0.999033         2.514013
 H        -2.213640         3.736654         1.289925
 H        -1.108691         4.406501         3.395523
 H        -0.665529         2.791458         3.687794
 H         1.203066         4.770876         2.269985
 H         1.346560         3.365047         3.455553
 H        -0.089566         3.221442        -0.463098
