19
Iteration:  4380
 O         0.282526         0.297853         0.519266
 C        -0.563721         1.334944         0.628511
 C        -1.986355         1.096554         0.167733
 C        -1.694889         1.561880         1.635246
 C        -1.387550         3.009362         1.644992
 C        -0.555164         3.562616         2.888305
 C         0.881011         3.770951         2.438972
 O         1.037460         2.816237         1.348980
 C        -0.160858         2.734153         0.630535
 H         0.743484         0.541054         1.338222
 H        -2.719962         1.666709        -0.557329
 H        -2.368531         0.000937         0.173892
 H        -2.162323         0.875508         2.370165
 H        -2.220833         3.513986         1.067620
 H        -0.968412         4.404728         3.429128
 H        -0.468619         2.862088         3.739499
 H         1.207489         4.800015         2.072456
 H         1.704795         3.478100         3.079605
 H        -0.105490         3.281151        -0.384425
