19
Iteration:   374charge 0 multiplicity 1
 O         0.350246         0.155614         0.565347
 C        -0.579927         1.220050         0.655114
 C        -2.016998         1.109624         0.259110
 C        -1.746511         1.757866         1.621889
 C        -1.352185         3.206099         1.620744
 C        -0.603436         3.544395         2.896982
 C         0.861723         3.648458         2.455314
 O         1.031931         2.870304         1.234212
 C        -0.143912         2.699710         0.574880
 H         1.107925         0.492098         1.006693
 H        -2.513593         1.540958        -0.522699
 H        -2.459017         0.098931         0.471120
 H        -2.178994         1.209946         2.522260
 H        -2.016427         3.869375         1.149755
 H        -0.849925         4.396785         3.490968
 H        -0.698544         2.808123         3.674795
 H         1.337728         4.736253         2.231302
 H         1.414076         3.232650         3.254757
 H        -0.133722         3.059541        -0.452539
