19
Iteration:  1966
 O         0.386222         0.088489         0.570641
 C        -0.459702         1.271388         0.706698
 C        -1.924087         1.088431         0.272886
 C        -1.721814         1.608215         1.714188
 C        -1.397700         3.157780         1.702298
 C        -0.631862         3.840161         2.789456
 C         0.819256         3.133377         2.563718
 O         0.972045         3.203188         1.152109
 C        -0.217664         2.788671         0.528679
 H         1.295095         0.297917         0.513135
 H        -2.453965         1.688530        -0.402539
 H        -2.198156         0.005130         0.116043
 H        -1.989923         1.158566         2.688532
 H        -2.334230         3.633769         1.287185
 H        -0.535252         4.941431         2.358561
 H        -1.190492         3.921971         3.748143
 H         1.705170         3.730509         2.910500
 H         0.820999         2.149287         2.994005
 H        -0.298301         3.252200        -0.478312
