19
Iteration:  1254charge 0 multiplicity 1
 O         0.337045         0.318703         0.749783
 C        -0.598583         1.307175         0.573231
 C        -2.050304         0.991848         0.283019
 C        -1.694801         1.563136         1.654139
 C        -1.337013         3.093998         1.618842
 C        -0.598726         3.772102         2.744222
 C         0.848506         3.205135         2.565683
 O         1.093672         3.080040         1.169876
 C        -0.229959         2.811682         0.515885
 H         1.186812         0.842874         1.076155
 H        -2.478187         1.616916        -0.467574
 H        -2.085239        -0.133827         0.072698
 H        -1.913668         0.857716         2.545022
 H        -2.173478         3.643642         1.136868
 H        -0.785425         4.848142         2.494343
 H        -0.914482         3.529122         3.743322
 H         1.590903         3.905268         3.068324
 H         0.957033         2.207948         3.089871
 H        -0.196317         3.465389        -0.301663
