19
Iteration:  2407charge 0 multiplicity 1
 O         0.290446         0.075992         0.504280
 C        -0.543382         1.192948         0.643747
 C        -2.035160         1.146324         0.362623
 C        -1.632605         1.579406         1.750542
 C        -1.328439         3.023272         1.561294
 C        -0.648434         3.756565         2.748115
 C         0.787382         3.303962         2.607368
 O         1.046780         3.332340         1.144851
 C        -0.054856         2.740669         0.589938
 H         1.095046         0.179104         1.037414
 H        -2.527182         1.804717        -0.265943
 H        -2.391138         0.033555         0.263763
 H        -2.274208         1.381296         2.686843
 H        -2.115490         3.593040         1.056492
 H        -0.799046         4.867403         2.828782
 H        -1.176903         3.370930         3.721467
 H         1.423556         4.028650         3.038845
 H         1.126256         2.325317         3.112482
 H        -0.136329         3.069956        -0.405990
