19
Iteration:  1773
 O         0.492095         0.311753         0.459663
 C        -0.571726         1.270327         0.706485
 C        -2.008975         1.049028         0.450965
 C        -1.645437         1.679522         1.820662
 C        -1.336088         3.143072         1.475796
 C        -0.617877         3.805714         2.650258
 C         0.715466         3.138675         2.662749
 O         1.011117         3.013983         1.207366
 C        -0.219917         2.738653         0.502983
 H         1.298406         0.763816         0.832270
 H        -2.649361         1.788010        -0.163135
 H        -2.419995         0.079176         0.543627
 H        -1.973537         1.259016         2.748802
 H        -2.152011         3.644886         1.004809
 H        -0.451427         4.873757         2.455488
 H        -1.252989         3.726429         3.568325
 H         1.494947         3.685212         3.187064
 H         0.684177         2.081050         3.064339
 H        -0.258918         3.088428        -0.526256
