19
Iteration:  4631
 O         0.308976         0.311749         0.673340
 C        -0.560528         1.356744         0.675730
 C        -1.966332         1.143835         0.121300
 C        -1.746281         1.552332         1.555070
 C        -1.323112         3.064701         1.696439
 C        -0.545600         3.370561         2.934282
 C         0.817884         3.664401         2.361424
 O         1.084224         2.917997         1.194516
 C        -0.256492         2.779745         0.641942
 H         0.830622         0.301423         1.493976
 H        -2.549942         1.697039        -0.696020
 H        -2.226090         0.034883         0.185440
 H        -1.998500         1.028320         2.380093
 H        -1.909002         3.897137         1.398608
 H        -0.989301         4.359105         3.351877
 H        -0.664954         2.514543         3.712792
 H         1.058389         4.731814         2.308715
 H         1.475456         3.301890         3.120139
 H        -0.201486         3.368365        -0.347353
