19
Iteration:  4424charge 0 multiplicity 1
 O         0.324548         0.178426         0.498429
 C        -0.566021         1.212051         0.543488
 C        -1.976159         1.180104         0.275552
 C        -1.685112         1.507730         1.679850
 C        -1.346334         3.081713         1.610158
 C        -0.598827         3.660569         2.935748
 C         0.794613         3.796882         2.488493
 O         1.051231         2.837429         1.354040
 C        -0.166098         2.671752         0.606855
 H         0.894781         0.388425        -0.249147
 H        -2.345663         1.925641        -0.567114
 H        -2.277864         0.114007        -0.025186
 H        -2.299826         1.163328         2.541812
 H        -2.240505         3.724324         1.306605
 H        -1.025439         4.580895         3.362789
 H        -0.635007         2.843234         3.713637
 H         1.099378         4.868645         2.275959
 H         1.444101         3.654713         3.345690
 H         0.052518         3.239679        -0.387112
