19
Iteration:   475
 O         0.382581         0.290033         0.575504
 C        -0.580438         1.345375         0.722207
 C        -2.052219         1.052601         0.457733
 C        -1.619779         1.647798         1.796238
 C        -1.336304         3.106527         1.446801
 C        -0.660466         3.748534         2.646905
 C         0.710325         3.029259         2.665878
 O         1.114324         3.128742         1.122479
 C        -0.120949         2.816942         0.490688
 H         1.219785         0.587915         0.828398
 H        -2.737751         1.740406        -0.076587
 H        -2.345346         0.032514         0.412312
 H        -1.832254         1.354984         2.821547
 H        -2.143739         3.703595         1.190301
 H        -0.619603         4.834356         2.513799
 H        -1.300752         3.578264         3.560319
 H         1.539108         3.515389         3.209154
 H         0.550260         1.969138         2.795635
 H        -0.204918         3.125292        -0.513146
