19
Iteration:  4862charge 0 multiplicity 1
 O         0.382057         0.232339         0.601605
 C        -0.604723         1.297174         0.639916
 C        -1.998816         1.125654         0.154544
 C        -1.743921         1.599032         1.595544
 C        -1.355328         3.023305         1.668599
 C        -0.588879         3.496030         2.950847
 C         0.894128         3.660654         2.448613
 O         1.020588         2.938030         1.252776
 C        -0.225430         2.749502         0.578427
 H         1.170596         0.646064         0.968066
 H        -2.448780         1.899686        -0.579117
 H        -2.471541         0.168749         0.183572
 H        -2.121911         1.053181         2.522661
 H        -2.075862         3.855646         1.493296
 H        -0.867788         4.476595         3.342993
 H        -0.635612         2.653167         3.749662
 H         1.221933         4.708797         2.088510
 H         1.678065         3.321625         3.167696
 H        -0.267325         3.166736        -0.414612
