19
Iteration:   502charge 0 multiplicity 1
 O         0.373410         0.245134         0.560756
 C        -0.609070         1.302201         0.530553
 C        -2.007451         0.928645         0.410985
 C        -1.622798         1.711396         1.689005
 C        -1.347306         3.230821         1.489314
 C        -0.591918         3.826867         2.816015
 C         0.766441         3.230243         2.679604
 O         0.984326         2.923665         1.211752
 C        -0.160871         2.804349         0.473337
 H         1.190113         0.572604         0.882104
 H        -2.725661         1.450300        -0.260683
 H        -2.209310        -0.163115         0.615899
 H        -1.600001         1.244830         2.674865
 H        -2.238740         3.933826         1.248731
 H        -0.474395         4.954736         2.734137
 H        -1.115786         3.567443         3.761624
 H         1.545395         3.963365         2.900802
 H         0.952370         2.246174         3.233983
 H        -0.025111         3.213929        -0.592610
