19
Iteration:  1084charge 0 multiplicity 1
 O         0.341193         0.206809         0.500332
 C        -0.596369         1.265028         0.657929
 C        -2.052108         0.957812         0.431279
 C        -1.600940         1.668697         1.678071
 C        -1.292944         3.164414         1.468662
 C        -0.611233         3.855837         2.661371
 C         0.702520         3.126757         2.693695
 O         1.075578         3.171745         1.257044
 C        -0.181014         2.802115         0.550049
 H         1.183939         0.511019         0.921349
 H        -2.735851         1.367008        -0.445446
 H        -2.050071        -0.228272         0.579218
 H        -1.878419         1.150127         2.642188
 H        -2.149215         3.785106         1.113382
 H        -0.503976         4.998494         2.663485
 H        -1.026652         3.658732         3.701015
 H         1.607400         3.538883         3.224341
 H         0.703963         2.008328         2.929506
 H        -0.084902         3.175223        -0.512529
