19
Iteration:  4256
 O         0.255168         0.188883         0.678917
 C        -0.532977         1.283869         0.669961
 C        -2.071476         1.246859         0.127081
 C        -1.769456         1.537614         1.544613
 C        -1.382391         2.932112         1.704236
 C        -0.563959         3.408560         2.895131
 C         0.784911         3.934502         2.332898
 O         1.169507         2.906432         1.334629
 C        -0.072535         2.738013         0.715458
 H         0.379678        -0.024746        -0.238198
 H        -2.536037         1.900363        -0.534261
 H        -2.320675         0.208653        -0.110936
 H        -1.954072         0.830054         2.400618
 H        -2.078215         3.708002         1.457670
 H        -0.988527         4.368913         3.301905
 H        -0.214987         2.590158         3.526176
 H         0.981551         4.893989         1.876314
 H         1.478758         3.878318         3.193945
 H        -0.095138         3.236709        -0.315593
