19
Iteration:  1921
 O         0.383668         0.257653         0.642389
 C        -0.632930         1.278004         0.621936
 C        -2.112265         1.044648         0.358845
 C        -1.708580         1.604989         1.625379
 C        -1.331744         3.097717         1.495178
 C        -0.623668         3.571081         2.834734
 C         0.877163         3.392869         2.600290
 O         1.079289         3.109432         1.149765
 C        -0.164847         2.797830         0.522372
 H         0.925860         0.402710         1.382674
 H        -2.694259         1.541732        -0.404280
 H        -2.157059         0.035417         0.420876
 H        -1.870271         1.087446         2.474049
 H        -2.159263         3.743148         1.040428
 H        -0.743599         4.761359         3.000234
 H        -0.928399         3.135010         3.829065
 H         1.386070         4.344232         2.904283
 H         1.357462         2.554132         3.068770
 H        -0.011486         3.179302        -0.470653
