19
Iteration:   497charge 0 multiplicity 1
 O         0.353308         0.253706         0.568603
 C        -0.604602         1.288602         0.535421
 C        -1.998289         0.979471         0.469315
 C        -1.585477         1.716778         1.685565
 C        -1.357936         3.223902         1.458499
 C        -0.588194         3.792285         2.779497
 C         0.754256         3.181668         2.628121
 O         0.983859         2.980057         1.261204
 C        -0.174186         2.770254         0.466830
 H         1.225591         0.693802         0.880646
 H        -2.657241         1.415658        -0.319009
 H        -2.233479        -0.050816         0.649329
 H        -1.625367         1.153656         2.638265
 H        -2.168707         3.812256         1.162047
 H        -0.420080         4.875099         2.795372
 H        -1.114489         3.575016         3.739729
 H         1.481787         3.957457         2.931846
 H         0.910897         2.207987         3.042514
 H         0.005488         3.284678        -0.450141
