19
Iteration:   562
 O         0.362280         0.159900         0.475626
 C        -0.572054         1.177933         0.630380
 C        -2.060377         1.227566         0.283131
 C        -1.586155         1.526091         1.758698
 C        -1.315153         3.057919         1.597561
 C        -0.636331         3.922682         2.713262
 C         0.790842         3.446058         2.574955
 O         1.084643         2.927796         1.256305
 C        -0.213875         2.689143         0.645613
 H         1.212145         0.674197         0.826921
 H        -2.340976         1.925088        -0.482252
 H        -2.784956         0.414239         0.318233
 H        -2.146211         0.928650         2.550236
 H        -2.215399         3.473337         1.157707
 H        -0.783596         4.951351         2.641132
 H        -1.025794         3.618269         3.687890
 H         1.538237         4.295615         2.815937
 H         0.918467         2.649242         3.288648
 H        -0.248861         3.188129        -0.329329
