19
Iteration:  2253charge 0 multiplicity 1
 O         0.234212         0.107271         0.517724
 C        -0.442302         1.289106         0.709526
 C        -1.921976         1.102691         0.391986
 C        -1.504353         1.657026         1.725758
 C        -1.386463         3.128544         1.524824
 C        -0.727727         3.752602         2.794626
 C         0.751265         3.197031         2.625458
 O         1.077133         3.240326         1.169039
 C        -0.180865         2.757834         0.472089
 H         1.179648         0.255043         0.751239
 H        -2.546274         1.726562        -0.193708
 H        -2.291416         0.091208         0.490216
 H        -1.868862         1.130932         2.606283
 H        -2.348144         3.548395         1.134698
 H        -0.837667         4.909803         2.739584
 H        -1.282539         3.319119         3.692056
 H         1.509005         3.770325         3.111604
 H         0.775786         2.100545         2.902451
 H        -0.167424         3.077736        -0.526913
