19
Iteration:  4373charge 0 multiplicity 1
 O         0.282101         0.294731         0.538150
 C        -0.606757         1.314775         0.631803
 C        -1.947561         1.094788         0.157370
 C        -1.648293         1.564756         1.586745
 C        -1.328215         3.060467         1.675980
 C        -0.610620         3.525673         2.926311
 C         0.907978         3.741819         2.362519
 O         0.990213         2.826705         1.346599
 C        -0.177677         2.771920         0.613862
 H         0.695148         0.050682         1.386989
 H        -2.573975         1.634493        -0.519059
 H        -2.246177         0.115866         0.449579
 H        -2.022286         1.029438         2.468290
 H        -2.150802         3.730770         1.333978
 H        -1.056470         4.431246         3.326531
 H        -0.589757         2.656840         3.600219
 H         1.038145         4.789812         2.117544
 H         1.665088         3.559214         3.183637
 H        -0.032450         3.264753        -0.331095
