19
Iteration:  3740charge 0 multiplicity 1
 O         0.277537         0.160366         0.540620
 C        -0.591480         1.225408         0.677045
 C        -1.957930         1.170941         0.189454
 C        -1.750059         1.577658         1.625067
 C        -1.326426         3.112978         1.654054
 C        -0.628522         3.534662         2.959284
 C         0.838161         3.739584         2.430279
 O         1.062940         2.974999         1.246134
 C        -0.089226         2.646910         0.649552
 H         1.025546         0.285092         1.132074
 H        -2.247506         1.779702        -0.681832
 H        -2.185284         0.172979        -0.136802
 H        -2.418718         1.227777         2.460913
 H        -2.026259         3.802201         1.240680
 H        -0.981713         4.514954         3.254836
 H        -0.687550         2.678697         3.610344
 H         0.806937         4.795019         2.114358
 H         1.671552         3.466092         3.205682
 H        -0.188399         3.106658        -0.370530
