19
Iteration:   973
 O         0.352438         0.326218         0.720940
 C        -0.594178         1.295647         0.638272
 C        -2.060702         1.107609         0.283828
 C        -1.641652         1.588659         1.688518
 C        -1.318750         3.100997         1.501840
 C        -0.654709         3.591064         2.741551
 C         0.855928         3.340269         2.590909
 O         1.079440         2.982960         1.161308
 C        -0.205617         2.834277         0.528372
 H         1.117459         0.571591         1.388105
 H        -2.640762         1.901769        -0.421426
 H        -2.393520         0.099808         0.226714
 H        -1.908023         1.196298         2.615679
 H        -2.238386         3.637407         1.182429
 H        -0.706147         4.749287         2.791148
 H        -1.059063         3.033795         3.561145
 H         1.522423         4.189231         2.782000
 H         1.162779         2.454800         3.240551
 H        -0.178213         3.019050        -0.532852
