19
Iteration:  1400
 O         0.371721         0.208624         0.449268
 C        -0.638468         1.201347         0.649703
 C        -2.003388         0.898469         0.334535
 C        -1.766571         1.670087         1.668578
 C        -1.371155         3.168899         1.618610
 C        -0.585967         3.822908         2.763532
 C         0.841239         3.418329         2.627919
 O         1.086418         3.047222         1.220687
 C        -0.147331         2.714502         0.562726
 H         1.114254         0.358305         1.158805
 H        -2.485900         1.347444        -0.502270
 H        -2.291989        -0.075927         0.488021
 H        -2.321463         1.284736         2.449746
 H        -2.031913         4.015436         1.159249
 H        -0.674589         4.961853         2.837791
 H        -0.839860         3.444793         3.808827
 H         1.481871         4.257802         2.938539
 H         1.108208         2.551788         3.328515
 H        -0.177742         3.124174        -0.470509
