19
Iteration:  3854charge 0 multiplicity 1
 O         0.286504         0.159582         0.507530
 C        -0.563299         1.233017         0.507222
 C        -2.067395         1.180500         0.195265
 C        -1.700012         1.473208         1.592463
 C        -1.356815         3.009807         1.638170
 C        -0.615377         3.663837         2.949991
 C         0.824892         3.835419         2.447413
 O         1.113795         2.842389         1.423059
 C        -0.129978         2.730313         0.616400
 H         1.109585         0.356646         0.982206
 H        -2.882794         1.916284        -0.252708
 H        -2.245665         0.043388         0.261873
 H        -1.978859         0.958866         2.465060
 H        -2.119853         3.728380         1.302071
 H        -0.803397         4.739706         3.152617
 H        -0.568896         3.008028         3.796823
 H         0.825766         4.740682         1.855883
 H         1.648338         3.706543         3.087243
 H         0.056246         3.342430        -0.270715
