19
Iteration:   740charge 0 multiplicity 1
 O         0.270427         0.168409         0.586551
 C        -0.526100         1.244962         0.721930
 C        -2.069487         1.096037         0.347025
 C        -1.655373         1.634807         1.679645
 C        -1.329660         3.105550         1.517414
 C        -0.624324         3.710108         2.753573
 C         0.799168         3.202824         2.608485
 O         1.070996         3.296605         1.176685
 C        -0.086139         2.705278         0.517110
 H         1.095869         0.333911         1.102040
 H        -2.583427         1.798621        -0.405812
 H        -2.446571         0.111385         0.430369
 H        -2.050311         1.189019         2.555367
 H        -2.010400         3.907532         1.203073
 H        -0.701340         4.777482         2.617492
 H        -1.225734         3.350512         3.622293
 H         1.488617         3.795635         3.140994
 H         0.976738         2.151417         2.926354
 H         0.048505         2.857996        -0.517826
