19
Iteration:  1331
 O         0.314780         0.201790         0.684765
 C        -0.564732         1.306001         0.507312
 C        -1.962915         0.963313         0.302975
 C        -1.594582         1.621962         1.707167
 C        -1.302915         3.185399         1.515773
 C        -0.547140         3.801059         2.746530
 C         0.740273         3.135976         2.633389
 O         0.997240         3.162752         1.212326
 C        -0.246603         2.796145         0.549681
 H         1.111105         0.583683         0.999752
 H        -2.675719         1.498945        -0.324068
 H        -2.267074        -0.130067         0.310536
 H        -1.768855         1.019275         2.669894
 H        -2.200107         3.714431         1.198415
 H        -0.405828         4.887400         2.475051
 H        -1.101147         3.754315         3.656665
 H         1.534204         3.814352         3.087705
 H         0.896511         2.087474         2.990802
 H        -0.222932         3.324335        -0.342197
