19
Iteration:  4137
 O         0.265061         0.163070         0.556000
 C        -0.606876         1.296191         0.608264
 C        -2.038253         1.116823         0.182425
 C        -1.736919         1.496965         1.635599
 C        -1.283176         3.065225         1.696965
 C        -0.620929         3.631838         2.914139
 C         0.817671         3.792282         2.464160
 O         1.148276         2.868206         1.368963
 C        -0.131674         2.725366         0.572204
 H         1.023934         0.426391        -0.037046
 H        -2.554355         1.705341        -0.653761
 H        -2.335372         0.062045        -0.029780
 H        -2.069334         0.847485         2.519161
 H        -2.123472         3.787347         1.360552
 H        -1.061740         4.631406         3.065337
 H        -0.725778         2.934774         3.734095
 H         1.072308         4.834076         2.085681
 H         1.565205         3.580134         3.249600
 H        -0.051174         3.283592        -0.335552
