19
Iteration:  2291charge 0 multiplicity 1
 O         0.285860         0.239411         0.503468
 C        -0.578549         1.293651         0.627169
 C        -1.995596         0.967596         0.388478
 C        -1.575681         1.580458         1.695417
 C        -1.288730         3.120790         1.543630
 C        -0.650742         3.827396         2.739475
 C         0.799929         3.193031         2.672400
 O         1.052583         3.233497         1.224282
 C        -0.205462         2.723030         0.505391
 H         1.071178         0.317292         0.987831
 H        -2.777086         1.455583        -0.356601
 H        -2.258417        -0.123369         0.602555
 H        -1.830290         1.043606         2.616877
 H        -2.091872         3.751802         1.132205
 H        -0.561325         4.878027         2.604176
 H        -1.236009         3.759704         3.636669
 H         1.655368         3.678081         3.241632
 H         0.761099         2.184641         3.042692
 H        -0.058666         3.126776        -0.589526
