19
Iteration:  1537charge 0 multiplicity 1
 O         0.347312         0.237889         0.611075
 C        -0.496985         1.285295         0.664736
 C        -2.022203         1.079798         0.421582
 C        -1.444721         1.577459         1.707174
 C        -1.334961         3.121367         1.522421
 C        -0.690632         3.797334         2.716558
 C         0.681683         3.127522         2.584988
 O         0.973452         3.108845         1.180352
 C        -0.150700         2.822474         0.469129
 H         0.981307         0.405424         1.416772
 H        -2.589829         1.897909        -0.211982
 H        -2.550442         0.200597         0.324720
 H        -1.575844         1.230757         2.666920
 H        -2.284054         3.568106         1.205212
 H        -0.479057         4.838811         2.630886
 H        -1.235188         3.615372         3.577149
 H         1.501634         3.678075         3.071703
 H         0.922015         2.082641         2.844770
 H        -0.168641         3.302488        -0.601093
