19
Iteration:  1919charge 0 multiplicity 1
 O         0.374990         0.258320         0.653706
 C        -0.607964         1.270317         0.599433
 C        -2.113641         1.040913         0.363071
 C        -1.701047         1.608972         1.605640
 C        -1.347411         3.121208         1.513647
 C        -0.606971         3.563291         2.829051
 C         0.867875         3.412746         2.598901
 O         1.086117         3.091013         1.142590
 C        -0.175703         2.813288         0.536670
 H         0.951126         0.375946         1.382117
 H        -2.677291         1.541086        -0.441197
 H        -2.191152         0.018518         0.472193
 H        -1.895647         1.046395         2.451488
 H        -2.194821         3.670213         1.099323
 H        -0.704952         4.729175         2.985368
 H        -0.941483         3.122000         3.830320
 H         1.323708         4.348496         2.922702
 H         1.341956         2.531918         3.060777
 H        -0.020116         3.163024        -0.436569
