19
Iteration:  2807charge 0 multiplicity 1
 O         0.347062         0.317619         0.681443
 C        -0.544861         1.315284         0.599451
 C        -1.995760         1.177345         0.246943
 C        -1.797895         1.594747         1.650847
 C        -1.363388         3.106413         1.644808
 C        -0.575776         3.401249         2.892626
 C         0.832842         3.700023         2.387654
 O         1.067571         2.768333         1.276412
 C        -0.143240         2.742336         0.541108
 H         1.138546         0.769943         1.013663
 H        -2.433454         1.727710        -0.533204
 H        -2.387959         0.203682         0.142407
 H        -2.324448         1.125315         2.423154
 H        -1.955778         3.931920         1.197853
 H        -1.036947         4.328148         3.406681
 H        -0.812310         2.507540         3.652607
 H         0.649462         4.696940         1.889817
 H         1.758936         3.617887         2.984728
 H        -0.020329         3.355823        -0.426932
