19
Iteration:  4941charge 0 multiplicity 1
 O         0.214168         0.238171         0.565675
 C        -0.602204         1.348980         0.574941
 C        -2.011988         1.151821         0.169357
 C        -1.696346         1.468694         1.588312
 C        -1.388198         2.963519         1.652165
 C        -0.532774         3.463959         2.920144
 C         0.874592         3.877656         2.428569
 O         1.077971         2.907217         1.352482
 C        -0.119297         2.744959         0.607699
 H         0.888233         0.327577         1.254475
 H        -2.446728         1.870790        -0.495495
 H        -2.284844         0.057215         0.073892
 H        -1.734547         0.702019         2.411206
 H        -2.224240         3.637735         1.518118
 H        -0.941084         4.302731         3.452472
 H        -0.572993         2.656959         3.733197
 H         0.874838         4.971469         2.065077
 H         1.754951         3.719467         2.956323
 H        -0.126425         3.287706        -0.323228
