19
Iteration:  1595charge 0 multiplicity 1
 O         0.513666         0.370926         0.639083
 C        -0.590846         1.202571         0.670616
 C        -2.043627         1.078643         0.348182
 C        -1.806992         1.640788         1.686375
 C        -1.363146         3.151202         1.544482
 C        -0.598617         3.776291         2.758661
 C         0.853367         3.264205         2.592852
 O         1.039880         2.991424         1.153479
 C        -0.238191         2.682010         0.558737
 H         1.274850         0.885398         0.482039
 H        -2.473071         1.574096        -0.540003
 H        -2.420687        -0.052140         0.482398
 H        -2.106581         1.107240         2.653031
 H        -2.108419         3.755628         1.101012
 H        -0.755508         4.864802         2.769376
 H        -1.107977         3.355309         3.632337
 H         1.727582         3.915090         2.943183
 H         0.889821         2.253819         2.978765
 H        -0.166390         3.098270        -0.468744
