19
Iteration:  4291charge 0 multiplicity 1
 O         0.238648        -0.004725         0.612686
 C        -0.597751         1.205412         0.626565
 C        -2.014123         1.196203         0.091419
 C        -1.681081         1.631803         1.531941
 C        -1.289765         3.012170         1.775010
 C        -0.516780         3.445801         2.976413
 C         0.783249         3.971249         2.368186
 O         1.074335         2.944613         1.319566
 C        -0.146575         2.756166         0.672984
 H         0.963991         0.216990         0.038442
 H        -2.127835         1.988158        -0.714126
 H        -2.521030         0.231774         0.057479
 H        -2.065449         1.065461         2.337389
 H        -1.984323         3.833091         1.473960
 H        -1.052227         4.179324         3.552603
 H        -0.433150         2.787890         3.784458
 H         0.665418         4.949612         1.881474
 H         1.475460         3.846687         3.127329
 H        -0.224123         3.322787        -0.324153
