19
Iteration:   684charge 0 multiplicity 1
 O         0.437846         0.505870         0.794756
 C        -0.697828         1.219749         0.607706
 C        -2.109065         0.900615         0.150197
 C        -1.792429         1.614042         1.637433
 C        -1.311184         3.155543         1.556726
 C        -0.464596         3.799946         2.771687
 C         0.917188         3.114855         2.576896
 O         1.044227         2.986289         1.185324
 C        -0.283337         2.801836         0.574288
 H         1.135472         1.220852         1.133991
 H        -2.517610         1.309035        -0.830922
 H        -2.406913        -0.171795         0.181241
 H        -2.040565         1.133394         2.583595
 H        -1.885986         4.007328         1.247614
 H        -0.481447         4.827975         2.705940
 H        -0.912139         3.596340         3.776781
 H         1.753347         3.682764         2.975213
 H         0.900361         2.104182         3.061596
 H        -0.214094         3.240541        -0.382413
