19
Iteration:  3948charge 0 multiplicity 1
 O         0.301500         0.171945         0.623034
 C        -0.619773         1.260378         0.586275
 C        -1.958614         1.144122         0.117637
 C        -1.716019         1.575079         1.625288
 C        -1.343897         3.054422         1.666902
 C        -0.584725         3.545301         2.921718
 C         0.902261         3.795037         2.334818
 O         1.050338         2.814319         1.339067
 C        -0.207481         2.796725         0.648960
 H         1.029500         0.568949         1.166920
 H        -2.442681         1.974529        -0.265933
 H        -2.395990         0.160046        -0.097814
 H        -1.839771         1.021103         2.547961
 H        -2.243125         3.771851         1.340310
 H        -1.113490         4.432488         3.327422
 H        -0.513044         2.619276         3.538387
 H         1.095113         4.799770         1.870514
 H         1.523953         3.537143         3.278745
 H        -0.240916         3.369371        -0.286272
