19
Iteration:    34charge 0 multiplicity 1
 O         0.411486         0.502125         0.699642
 C        -0.640295         1.321479         0.622653
 C        -2.011891         0.913078         0.333796
 C        -1.829404         1.715442         1.593975
 C        -1.292528         3.161731         1.552235
 C        -0.515154         3.685062         2.796343
 C         0.893587         3.176683         2.526205
 O         1.001708         2.792795         1.183917
 C        -0.236270         2.863464         0.553022
 H         1.201218         1.156937         0.997791
 H        -2.560359         1.162873        -0.530291
 H        -2.245657        -0.113256         0.679175
 H        -2.255406         1.234651         2.427773
 H        -1.980195         3.919909         1.187062
 H        -0.560332         4.762915         2.677580
 H        -0.968624         3.432419         3.748447
 H         1.627632         3.960984         2.710154
 H         1.097050         2.368652         3.217037
 H        -0.233925         3.450472        -0.360917
