19
Iteration:   260charge 0 multiplicity 1
 O         0.160370         0.071938         0.480118
 C        -0.618941         1.252908         0.641294
 C        -2.121549         1.140737         0.280348
 C        -1.755402         1.539599         1.609624
 C        -1.227548         3.012009         1.602207
 C        -0.590911         3.633537         2.842027
 C         0.857853         3.871464         2.456932
 O         1.147590         2.970589         1.395493
 C        -0.028018         2.655296         0.609361
 H         1.044003         0.242435         0.881744
 H        -2.725158         1.808897        -0.416743
 H        -2.221342         0.038976         0.081825
 H        -1.957706         1.027676         2.505084
 H        -1.996199         3.787309         1.170121
 H        -1.094874         4.532607         3.236616
 H        -0.682130         2.979192         3.745634
 H         1.050852         4.949689         2.016936
 H         1.583080         3.736665         3.358409
 H         0.034419         3.038661        -0.457065
