19
Iteration:  4372charge 0 multiplicity 1
 O         0.285748         0.290872         0.542051
 C        -0.610347         1.310719         0.627718
 C        -1.945041         1.093836         0.161219
 C        -1.647120         1.567471         1.584665
 C        -1.320429         3.067003         1.676724
 C        -0.614922         3.523179         2.930945
 C         0.908328         3.740686         2.359206
 O         0.989419         2.827704         1.346625
 C        -0.181725         2.775980         0.613169
 H         0.685102         0.002709         1.361362
 H        -2.570782         1.666181        -0.547666
 H        -2.236762         0.089229         0.456413
 H        -2.004454         1.034660         2.486031
 H        -2.150644         3.777017         1.372203
 H        -1.052746         4.408850         3.307704
 H        -0.609733         2.648086         3.588167
 H         1.008931         4.788333         2.104025
 H         1.648031         3.555667         3.185204
 H        -0.034436         3.282061        -0.347897
