19
Iteration:  4441
 O         0.248770         0.112578         0.494885
 C        -0.566107         1.314983         0.668205
 C        -1.997779         1.125269         0.190819
 C        -1.655333         1.550597         1.636165
 C        -1.348118         3.005146         1.597462
 C        -0.650569         3.571123         2.859410
 C         0.870450         3.819424         2.439542
 O         1.055387         2.899326         1.439287
 C        -0.110584         2.802223         0.666678
 H         0.631039        -0.018923        -0.385513
 H        -2.551663         1.826710        -0.302932
 H        -2.289969         0.097225         0.113031
 H        -1.605221         0.837503         2.461174
 H        -2.048205         3.709897         1.210482
 H        -1.225636         4.521927         3.121026
 H        -0.670682         2.793273         3.602803
 H         1.091773         4.862702         2.157837
 H         1.648067         3.641640         3.243768
 H        -0.199680         3.364617        -0.225140
