19
Iteration:  1127
 O         0.493657         0.374972         0.560111
 C        -0.580848         1.248917         0.700555
 C        -1.999511         1.070599         0.310129
 C        -1.629711         1.612612         1.715172
 C        -1.354190         3.192251         1.571167
 C        -0.563766         3.812913         2.678642
 C         0.783863         3.261664         2.624579
 O         0.993438         2.833024         1.238196
 C        -0.338520         2.729854         0.501370
 H         1.322949         0.759487         1.036155
 H        -2.487939         1.745836        -0.444444
 H        -2.391487        -0.017992         0.320388
 H        -2.051023         1.210809         2.684537
 H        -2.229080         3.769604         1.191376
 H        -0.543585         4.944074         2.628943
 H        -1.231598         3.635950         3.515066
 H         1.671667         3.878380         2.871839
 H         0.769149         2.363248         3.312067
 H        -0.276241         3.332204        -0.479126
