19
Iteration:   765charge 0 multiplicity 1
 O         0.194966        -0.001828         0.492516
 C        -0.527957         1.165803         0.637029
 C        -1.925447         1.068417         0.269924
 C        -1.643771         1.613433         1.667265
 C        -1.358040         3.087674         1.564840
 C        -0.581906         3.884452         2.752838
 C         0.820597         3.309560         2.640953
 O         1.047677         3.218174         1.211804
 C        -0.158684         2.862628         0.667559
 H         0.833439         0.052677         1.342669
 H        -2.497610         1.701426        -0.618116
 H        -2.250782        -0.033318         0.401395
 H        -1.693625         0.999188         2.612926
 H        -2.240305         3.720094         1.343972
 H        -0.556380         5.033534         2.368269
 H        -1.102161         3.739589         3.704037
 H         1.596946         3.940686         3.092304
 H         0.952399         2.293746         3.050820
 H        -0.272722         3.288838        -0.346813
