19
Iteration:  3435charge 0 multiplicity 1
 O         0.346596         0.130234         0.489306
 C        -0.573340         1.243621         0.741931
 C        -2.056755         1.160102         0.194199
 C        -1.814350         1.611145         1.615689
 C        -1.324163         3.021305         1.565769
 C        -0.613320         3.544224         2.804311
 C         0.927076         3.772941         2.487936
 O         1.111541         2.972489         1.314905
 C        -0.176870         2.702507         0.715750
 H         1.141889         0.245539         1.029295
 H        -2.661390         1.753212        -0.536343
 H        -2.430247         0.121023         0.171581
 H        -2.333052         1.331333         2.540751
 H        -2.058897         3.865123         1.219930
 H        -0.985289         4.372262         3.409499
 H        -0.601149         2.644794         3.467910
 H         0.952977         4.792773         1.988504
 H         1.622078         3.496732         3.312085
 H        -0.241687         3.156056        -0.345774
