19
Iteration:  4172charge 0 multiplicity 1
 O         0.267526         0.133213         0.589735
 C        -0.614168         1.239291         0.614908
 C        -1.996308         1.177052         0.180127
 C        -1.654078         1.519898         1.676254
 C        -1.244596         3.025581         1.672355
 C        -0.641550         3.589562         2.834804
 C         0.858731         3.778208         2.509433
 O         1.057504         2.934152         1.351782
 C        -0.169822         2.779176         0.512909
 H         0.817914         0.015252        -0.241986
 H        -2.342823         2.058397        -0.508580
 H        -2.490179         0.147329         0.138090
 H        -2.006131         0.861773         2.499568
 H        -2.194964         3.603008         1.397718
 H        -1.015503         4.485006         3.248364
 H        -0.607500         3.000684         3.722265
 H         1.029343         4.895123         2.389616
 H         1.361410         3.422794         3.376916
 H        -0.058385         3.220122        -0.456978
