19
Iteration:  2731charge 0 multiplicity 1
 O         0.126336         0.038665         0.479100
 C        -0.581317         1.204308         0.610238
 C        -1.957828         1.266886         0.156825
 C        -1.571011         1.533026         1.734797
 C        -1.324529         3.023795         1.557481
 C        -0.561145         3.564399         2.939442
 C         0.798500         3.940622         2.434613
 O         1.069831         2.966206         1.392179
 C        -0.100869         2.653737         0.610572
 H         0.851576         0.146305         1.142793
 H        -2.327814         2.051011        -0.443478
 H        -2.301153         0.330683         0.053281
 H        -2.030962         1.045975         2.549500
 H        -2.279795         3.438344         1.167362
 H        -1.311595         4.221613         3.473694
 H        -0.514264         2.590473         3.502854
 H         0.847652         4.921778         1.924576
 H         1.662314         3.929604         3.128680
 H        -0.006674         3.096186        -0.333854
