19
Iteration:  2144charge 0 multiplicity 1
 O         0.305212         0.254438         0.513091
 C        -0.574234         1.315848         0.671753
 C        -2.093235         0.964872         0.403869
 C        -1.659318         1.606156         1.700895
 C        -1.365456         3.091796         1.452839
 C        -0.629273         3.700196         2.773793
 C         0.851117         3.296866         2.648483
 O         1.066521         3.207235         1.210511
 C        -0.068027         2.757846         0.551998
 H         1.144052         0.371962         0.980338
 H        -2.692754         1.505117        -0.359871
 H        -2.137505        -0.023299         0.456336
 H        -2.004956         1.190576         2.598409
 H        -2.139024         3.688480         0.897105
 H        -0.866335         4.779919         2.783056
 H        -1.073969         3.162836         3.641893
 H         1.583224         3.906865         3.115547
 H         0.931571         2.250366         2.983462
 H        -0.079262         3.088422        -0.489283
