19
Iteration:   592
 O         0.174202         0.098831         0.475028
 C        -0.532130         1.324709         0.688972
 C        -1.999294         1.050226         0.354206
 C        -1.654679         1.531586         1.716528
 C        -1.323163         3.096486         1.471415
 C        -0.593588         3.796250         2.730914
 C         0.838421         3.345745         2.714580
 O         1.112794         3.135013         1.234808
 C        -0.193305         2.823055         0.541375
 H         1.022135         0.098027         1.074643
 H        -2.516610         1.414699        -0.474600
 H        -2.111265         0.016737         0.325447
 H        -1.819183         1.105607         2.708442
 H        -2.326170         3.570152         1.124468
 H        -0.546994         4.884427         2.551708
 H        -1.189975         3.695674         3.591293
 H         1.541170         4.228072         2.946849
 H         1.061401         2.450064         3.311858
 H        -0.065903         3.280163        -0.505739
