19
Iteration:   578charge 0 multiplicity 1
 O         0.230585         0.124881         0.480292
 C        -0.565352         1.244628         0.630335
 C        -1.977027         1.084949         0.292501
 C        -1.592328         1.613735         1.703080
 C        -1.355661         3.090002         1.663853
 C        -0.668029         3.870228         2.741087
 C         0.824984         3.414877         2.605648
 O         1.032577         3.034933         1.258632
 C        -0.101064         2.692132         0.546570
 H         1.058404         0.258047         0.883402
 H        -2.516228         1.944219        -0.217055
 H        -2.191614        -0.008614         0.199089
 H        -1.825447         1.029577         2.551703
 H        -2.129594         3.766084         1.249829
 H        -0.788628         4.992624         2.434981
 H        -1.001131         3.679024         3.807935
 H         1.557052         4.109393         2.899537
 H         1.038652         2.520456         3.263725
 H        -0.051710         3.121553        -0.464431
