19
Iteration:  3741
 O         0.268770         0.159704         0.540042
 C        -0.587970         1.219755         0.670112
 C        -1.945921         1.169289         0.201520
 C        -1.741615         1.573419         1.623438
 C        -1.321779         3.116092         1.650650
 C        -0.636420         3.529144         2.951910
 C         0.838533         3.739625         2.430667
 O         1.070531         2.970376         1.244162
 C        -0.097715         2.658768         0.653184
 H         1.004203         0.303436         1.158706
 H        -2.300212         1.781912        -0.696158
 H        -2.190837         0.184420        -0.151601
 H        -2.443385         1.226512         2.454481
 H        -2.018607         3.816616         1.242313
 H        -0.984022         4.525883         3.277905
 H        -0.683324         2.691486         3.624944
 H         0.793875         4.796196         2.135105
 H         1.661418         3.497635         3.210300
 H        -0.201925         3.113372        -0.347023
