19
Iteration:  3604
 O         0.223246         0.065633         0.469956
 C        -0.591122         1.203801         0.603630
 C        -1.956832         1.176476         0.166890
 C        -1.676710         1.477656         1.659862
 C        -1.339966         3.043213         1.589632
 C        -0.566472         3.640078         2.925615
 C         0.835690         3.941770         2.552894
 O         1.067671         2.890984         1.354209
 C        -0.159997         2.723927         0.588079
 H         0.733111         0.262041         1.253303
 H        -2.206643         1.904166        -0.561419
 H        -2.348984         0.285048        -0.238558
 H        -1.964590         1.010284         2.639736
 H        -2.204755         3.706484         1.302348
 H        -1.205611         4.457483         3.331614
 H        -0.658462         2.917514         3.796937
 H         1.206915         4.902888         2.057657
 H         1.595483         3.624580         3.269442
 H         0.012170         3.227320        -0.445841
