19
Iteration:  2849charge 0 multiplicity 1
 O         0.267855         0.199798         0.639126
 C        -0.589210         1.280863         0.552939
 C        -1.967813         1.035935         0.205607
 C        -1.835308         1.582429         1.566892
 C        -1.352133         3.071167         1.554945
 C        -0.496061         3.508554         2.927708
 C         0.920386         3.747509         2.448181
 O         1.063367         2.947038         1.342116
 C        -0.231683         2.778086         0.618977
 H         1.137077         0.458417         0.981216
 H        -2.456060         1.707141        -0.475703
 H        -2.214899         0.011286         0.201363
 H        -2.395446         1.112645         2.253991
 H        -2.098741         3.863959         1.346900
 H        -0.851090         4.463883         3.418343
 H        -0.395414         2.708828         3.721942
 H         1.342310         4.811509         2.178897
 H         1.559503         3.297079         3.233283
 H        -0.159527         3.255218        -0.429838
