19
Iteration:  3933charge 0 multiplicity 1
 O         0.297558         0.256895         0.562809
 C        -0.603781         1.275537         0.661034
 C        -2.010987         1.175419         0.224753
 C        -1.784726         1.502032         1.627470
 C        -1.340552         3.041175         1.624647
 C        -0.550545         3.562456         2.861254
 C         0.896401         3.807579         2.448169
 O         1.041129         2.845907         1.351338
 C        -0.172276         2.682459         0.607680
 H         1.253555         0.455865         0.732914
 H        -2.383989         1.730220        -0.695347
 H        -2.262109         0.160909        -0.023121
 H        -2.330329         0.851489         2.387758
 H        -2.091666         3.742936         1.167365
 H        -0.971757         4.482653         3.277186
 H        -0.527840         2.843806         3.752460
 H         1.072681         4.796606         2.139406
 H         1.799454         3.675631         2.973065
 H        -0.034282         3.146976        -0.358275
