19
Iteration:  2622charge 0 multiplicity 1
 O         0.281301         0.285255         0.533764
 C        -0.605163         1.272422         0.577663
 C        -2.034320         1.052287         0.300390
 C        -1.682294         1.558710         1.655505
 C        -1.341551         3.071379         1.536374
 C        -0.603162         3.627680         2.826583
 C         0.973850         3.648383         2.528446
 O         1.065232         2.902532         1.346594
 C        -0.209728         2.699869         0.593694
 H         1.092640         0.723273         0.970794
 H        -2.670363         1.600045        -0.349581
 H        -2.198908        -0.012020         0.058490
 H        -2.079310         1.113469         2.517829
 H        -2.169716         3.686913         1.098576
 H        -0.958341         4.645719         3.017991
 H        -0.972113         3.143172         3.688729
 H         1.309363         4.690795         2.344511
 H         1.469690         3.121715         3.367652
 H        -0.187564         3.206401        -0.392063
