19
Iteration:   420charge 0 multiplicity 1
 O         0.370044         0.268717         0.705785
 C        -0.608837         1.299571         0.594722
 C        -2.072912         1.023939         0.261325
 C        -1.729756         1.606138         1.634015
 C        -1.396407         3.127302         1.615104
 C        -0.565816         3.768477         2.812295
 C         0.898816         3.291464         2.547181
 O         1.068999         2.998735         1.178437
 C        -0.216725         2.768147         0.522321
 H         1.080505         0.768143         1.082466
 H        -2.583644         1.575799        -0.542466
 H        -2.311508        -0.015911         0.209910
 H        -1.841909         0.958092         2.460976
 H        -2.088279         3.846026         1.317686
 H        -0.779143         4.860170         2.824356
 H        -0.837921         3.469495         3.860443
 H         1.637598         4.142707         2.814825
 H         1.321033         2.445590         3.076110
 H        -0.174431         3.149313        -0.465058
