19
Iteration:  3195
 O         0.278713         0.134352         0.528417
 C        -0.583663         1.213084         0.636176
 C        -2.021688         1.196960         0.184377
 C        -1.675973         1.491851         1.619148
 C        -1.347809         3.092073         1.648481
 C        -0.582692         3.599323         2.789720
 C         0.865928         3.859060         2.435544
 O         1.051706         2.889283         1.403899
 C        -0.180362         2.727272         0.658309
 H         0.899027        -0.050346         1.294003
 H        -2.153937         2.018860        -0.471677
 H        -2.504392         0.187271         0.085626
 H        -1.820823         0.672854         2.382135
 H        -2.131131         3.806364         1.287019
 H        -1.083324         4.489482         3.313380
 H        -0.492318         2.582814         3.352912
 H         1.003707         4.934938         1.972851
 H         1.615463         3.694395         3.192705
 H        -0.156427         3.222684        -0.351932
