19
Iteration:  2872
 O         0.293163         0.149549         0.530606
 C        -0.638689         1.264685         0.735422
 C        -1.988993         1.162622         0.163953
 C        -1.732086         1.590931         1.675359
 C        -1.281986         3.146699         1.612815
 C        -0.692873         3.492734         2.936467
 C         0.854942         3.733498         2.460834
 O         1.128120         2.955680         1.215244
 C        -0.146338         2.660568         0.638714
 H         1.204463         0.211386         0.958330
 H        -2.117288         1.867743        -0.572793
 H        -2.458163         0.152734         0.156259
 H        -2.235662         0.920276         2.334510
 H        -1.959381         3.953658         1.253169
 H        -1.037290         4.528136         3.262889
 H        -0.772792         2.730169         3.832234
 H         0.906949         4.860186         2.070630
 H         1.672937         3.539743         3.198544
 H        -0.281452         3.023999        -0.477458
