19
Iteration:  1831
 O         0.305175         0.205159         0.538676
 C        -0.569753         1.299372         0.702238
 C        -1.935604         1.057215         0.298926
 C        -1.606888         1.647689         1.728605
 C        -1.426627         3.135985         1.569885
 C        -0.632934         3.739434         2.742601
 C         0.841999         3.303970         2.567144
 O         1.023972         3.064699         1.223396
 C        -0.159680         2.764892         0.523727
 H         1.088606         0.431725         1.048457
 H        -2.542562         1.501952        -0.459334
 H        -2.237274        -0.061190         0.432194
 H        -1.853905         1.027403         2.679634
 H        -2.365405         3.601877         1.167427
 H        -0.634053         4.904984         2.593832
 H        -1.112918         3.512591         3.794689
 H         1.474554         4.099430         2.966088
 H         1.037371         2.354937         3.127345
 H        -0.096545         3.030604        -0.513855
