19
Iteration:  4579
 O         0.262155         0.153720         0.640386
 C        -0.592801         1.245434         0.666115
 C        -1.952840         1.181798         0.168632
 C        -1.763367         1.601358         1.619081
 C        -1.350951         3.021835         1.645797
 C        -0.602548         3.397553         2.981421
 C         0.825839         3.763828         2.474682
 O         1.110460         3.006656         1.205817
 C        -0.110879         2.767663         0.571022
 H         1.043275         0.464584         0.108239
 H        -2.372233         1.871926        -0.590790
 H        -2.369521         0.130033         0.126962
 H        -2.145368         1.170224         2.523072
 H        -2.080839         3.811122         1.392219
 H        -1.075584         4.190376         3.427475
 H        -0.631690         2.463424         3.548323
 H         0.809317         4.882221         2.245118
 H         1.620608         3.584390         3.189238
 H        -0.038248         3.205499        -0.392845
