19
Iteration:  1700charge 0 multiplicity 1
 O         0.300823         0.212394         0.630474
 C        -0.569666         1.244571         0.759332
 C        -1.963566         1.123791         0.285367
 C        -1.652729         1.557356         1.725401
 C        -1.370016         3.098716         1.562494
 C        -0.636963         3.732289         2.757088
 C         0.804910         3.320812         2.575172
 O         1.108481         3.088512         1.113733
 C        -0.184985         2.773356         0.479648
 H         1.187876         0.465584         0.996400
 H        -2.373569         1.820933        -0.407067
 H        -2.340998         0.066423         0.261668
 H        -1.907115         1.137157         2.768868
 H        -2.346226         3.692386         1.324952
 H        -0.991827         4.800520         2.737067
 H        -1.044452         3.291613         3.738127
 H         1.492906         4.108916         2.860968
 H         1.033935         2.517562         3.264541
 H        -0.229707         3.174177        -0.561046
