19
Iteration:  1191charge 0 multiplicity 1
 O         0.324799         0.125559         0.511262
 C        -0.537248         1.244597         0.781256
 C        -2.009472         1.116406         0.348477
 C        -1.658669         1.690558         1.704464
 C        -1.309385         3.128803         1.528817
 C        -0.716645         3.751749         2.775380
 C         0.789922         3.288453         2.566029
 O         1.046160         3.221981         1.165895
 C        -0.099409         2.621800         0.568798
 H         1.290761         0.342797         0.820626
 H        -2.527472         1.703327        -0.385201
 H        -2.199330        -0.011005         0.341083
 H        -2.158429         1.095047         2.548431
 H        -2.057292         3.891711         1.093239
 H        -0.794756         4.898866         2.908296
 H        -1.045164         3.329964         3.721988
 H         1.523862         3.975392         3.047052
 H         0.923097         2.303611         2.990908
 H        -0.248381         2.906914        -0.571454
