19
Iteration:  2897charge 0 multiplicity 1
 O         0.305631         0.077247         0.522089
 C        -0.603066         1.283692         0.622220
 C        -2.067535         1.245021         0.208873
 C        -1.760095         1.579116         1.654483
 C        -1.303681         2.980707         1.641527
 C        -0.601536         3.530420         2.788070
 C         0.865726         3.849516         2.463654
 O         1.054862         2.952062         1.360702
 C        -0.080247         2.686362         0.610463
 H         1.014084         0.121762         1.159406
 H        -2.424679         1.981522        -0.533295
 H        -2.370591         0.187855         0.110686
 H        -2.063430         1.023377         2.685647
 H        -2.109096         3.662605         1.316591
 H        -1.114490         4.369459         3.279919
 H        -0.423239         2.668509         3.625542
 H         1.033428         4.976587         2.116014
 H         1.578852         3.537001         3.263567
 H        -0.134308         3.235959        -0.389848
