19
Iteration:    22
 O         0.367349         0.437399         0.640902
 C        -0.658858         1.395510         0.691732
 C        -1.940094         0.872974         0.264983
 C        -1.804503         1.693238         1.678538
 C        -1.449479         3.266832         1.572954
 C        -0.548169         3.748861         2.756253
 C         0.910321         3.181024         2.593020
 O         1.098094         2.773014         1.175372
 C        -0.286883         2.822322         0.500431
 H         1.250121         0.997669         0.975263
 H        -2.475303         1.289471        -0.625884
 H        -2.003070        -0.207412         0.448561
 H        -1.995201         1.260444         2.654009
 H        -2.194560         3.973701         1.304694
 H        -0.439829         4.854822         2.832807
 H        -0.882923         3.384787         3.762373
 H         1.689651         3.891089         2.853717
 H         1.163513         2.273423         3.154241
 H        -0.084046         3.246186        -0.487414
