19
Iteration:  2146
 O         0.314952         0.264714         0.523761
 C        -0.561231         1.316121         0.663848
 C        -2.088153         0.984429         0.408972
 C        -1.663938         1.599525         1.683305
 C        -1.349001         3.085875         1.452479
 C        -0.636328         3.701258         2.783785
 C         0.829963         3.290138         2.636894
 O         1.072916         3.188532         1.201967
 C        -0.085695         2.765075         0.557561
 H         1.109907         0.393567         0.983110
 H        -2.747759         1.517325        -0.335324
 H        -2.202480        -0.126185         0.501134
 H        -2.014529         1.252544         2.613133
 H        -2.115969         3.664523         0.898780
 H        -0.852736         4.725178         2.834665
 H        -1.041143         3.189645         3.688162
 H         1.573857         3.937253         3.075694
 H         0.974457         2.274101         3.058740
 H        -0.084514         3.121724        -0.544836
