19
Iteration:  1840
 O         0.390254         0.233409         0.546880
 C        -0.568269         1.205367         0.708540
 C        -2.017213         1.088849         0.303947
 C        -1.683992         1.630690         1.651075
 C        -1.336516         3.124078         1.598553
 C        -0.629088         3.770746         2.749573
 C         0.829904         3.335829         2.605060
 O         1.024432         3.082911         1.183473
 C        -0.201361         2.677117         0.541964
 H         1.083237         0.588057         1.099152
 H        -2.664155         1.788288        -0.240015
 H        -2.376665        -0.037452         0.241778
 H        -2.132349         0.987419         2.532008
 H        -2.114147         3.768628         1.195665
 H        -0.766764         4.876068         2.739707
 H        -0.866637         3.372595         3.791932
 H         1.435213         4.194517         2.825083
 H         1.195629         2.517688         3.313421
 H         0.001470         2.991852        -0.463646
