19
Iteration:  1786charge 0 multiplicity 1
 O         0.400667         0.298490         0.491506
 C        -0.536383         1.215004         0.631883
 C        -2.096140         1.028709         0.532876
 C        -1.537697         1.669027         1.698563
 C        -1.370860         3.145443         1.520485
 C        -0.643799         3.854973         2.641882
 C         0.727706         3.060890         2.653406
 O         1.013509         3.169826         1.254502
 C        -0.173694         2.691170         0.477336
 H         1.196883         0.661014         0.859366
 H        -2.359294         1.566387        -0.378030
 H        -2.519117        -0.049505         0.445317
 H        -1.673719         1.196278         2.772573
 H        -2.247842         3.774083         1.247235
 H        -0.494036         4.983478         2.373955
 H        -1.157316         3.742481         3.716322
 H         1.560341         3.575407         3.068217
 H         0.637838         2.052406         3.143607
 H         0.149107         3.128425        -0.434804
