19
Iteration:    62charge 0 multiplicity 1
 O         0.420513         0.324506         0.726604
 C        -0.627457         1.255335         0.699495
 C        -2.092668         1.073737         0.335541
 C        -1.746135         1.624552         1.690537
 C        -1.381961         3.183915         1.474458
 C        -0.580458         3.643691         2.807100
 C         0.857716         3.200637         2.548029
 O         1.123955         3.058665         1.125185
 C        -0.228985         2.765963         0.465675
 H         1.257278         0.971827         0.909809
 H        -2.468031         1.893140        -0.397772
 H        -2.627776         0.144550         0.279555
 H        -1.949902         0.994621         2.612626
 H        -2.209137         3.878174         1.115495
 H        -0.609487         4.761150         2.921829
 H        -1.042208         3.110782         3.685499
 H         1.622702         3.847694         3.059784
 H         1.165946         2.276542         3.154329
 H        -0.099913         3.119054        -0.590725
