19
Iteration:  3787
 O         0.245812         0.174839         0.535041
 C        -0.648738         1.286671         0.509381
 C        -2.020256         1.082684         0.185940
 C        -1.651468         1.561718         1.610564
 C        -1.240396         3.072767         1.576721
 C        -0.556486         3.543402         2.982681
 C         0.796149         3.907204         2.445054
 O         1.102024         2.851199         1.430308
 C        -0.157480         2.685918         0.611657
 H         1.028379         0.390086         1.089004
 H        -2.779831         1.800802        -0.388261
 H        -2.505016         0.067631         0.198751
 H        -2.114290         0.991321         2.434159
 H        -1.915204         3.804270         1.110165
 H        -1.200502         4.362457         3.367342
 H        -0.541037         2.628880         3.529408
 H         0.829970         4.881091         1.921973
 H         1.594111         3.821498         3.173216
 H        -0.064195         3.240911        -0.310154
