19
Iteration:  3146charge 0 multiplicity 1
 O         0.220891         0.032488         0.511223
 C        -0.591526         1.208147         0.714017
 C        -2.006819         1.122912         0.135968
 C        -1.736750         1.596997         1.632945
 C        -1.345090         3.068801         1.584652
 C        -0.539955         3.472971         2.913967
 C         0.793560         3.955301         2.406871
 O         1.135395         2.958421         1.380497
 C        -0.126402         2.736035         0.670567
 H         1.147080         0.188397         0.637520
 H        -2.422261         1.936071        -0.553218
 H        -2.241620         0.128066         0.041519
 H        -2.326118         1.311846         2.511257
 H        -1.995658         3.877336         1.202433
 H        -1.077627         4.225742         3.425055
 H        -0.348422         2.583903         3.463110
 H         0.919802         4.985612         2.017872
 H         1.588484         3.913180         3.255766
 H        -0.159967         3.148576        -0.339353
