19
Iteration:   168charge 0 multiplicity 1
 O         0.331312         0.225258         0.555276
 C        -0.577026         1.241000         0.614801
 C        -1.993960         1.103420         0.334974
 C        -1.722211         1.635016         1.691769
 C        -1.344943         3.102150         1.613392
 C        -0.625971         3.753285         2.801650
 C         0.863338         3.505142         2.568156
 O         1.059770         2.862312         1.190512
 C        -0.198852         2.716343         0.566789
 H         1.219692         0.646337         0.765304
 H        -2.404237         1.715420        -0.433961
 H        -2.406677         0.158186         0.344988
 H        -2.191738         1.151370         2.614897
 H        -2.087755         3.816774         1.180963
 H        -0.936496         4.747206         3.020543
 H        -0.921343         3.203542         3.685414
 H         1.455070         4.465404         2.400270
 H         1.391234         2.896971         3.249125
 H        -0.030599         3.212089        -0.428555
