19
Iteration:  4470
 O         0.286516         0.125092         0.506084
 C        -0.652220         1.216660         0.509852
 C        -2.038247         1.144275         0.174133
 C        -1.687601         1.550746         1.623404
 C        -1.253731         3.006161         1.665098
 C        -0.658825         3.591114         2.981732
 C         0.802354         3.900875         2.433381
 O         1.147339         2.951735         1.473535
 C        -0.074158         2.692841         0.585170
 H         0.231798        -0.561064        -0.182374
 H        -2.651541         1.981635        -0.345937
 H        -2.444353         0.170409         0.096837
 H        -1.662850         0.836739         2.416201
 H        -1.951702         3.840577         1.325571
 H        -1.266239         4.328308         3.347436
 H        -0.634260         2.774951         3.713471
 H         0.839061         4.958010         2.102447
 H         1.560741         3.977722         3.228622
 H        -0.055694         3.324641        -0.408198
