19
Iteration:  1025charge 0 multiplicity 1
 O         0.359025         0.226503         0.569969
 C        -0.633272         1.178991         0.663868
 C        -2.021690         1.071139         0.285551
 C        -1.841002         1.591430         1.645515
 C        -1.320095         3.064724         1.606245
 C        -0.591110         3.758446         2.751143
 C         0.888494         3.368771         2.673770
 O         1.081129         3.170235         1.202430
 C        -0.161154         2.685406         0.547776
 H         1.135296         0.561194         1.006617
 H        -2.405220         1.698444        -0.434560
 H        -2.300962         0.072490         0.138955
 H        -2.181547         1.071212         2.540688
 H        -2.126773         3.730291         1.189723
 H        -0.533419         4.833086         2.509990
 H        -0.986309         3.585804         3.725460
 H         1.678179         4.088399         2.859169
 H         1.116648         2.416741         3.236570
 H        -0.131952         3.069176        -0.585534
