19
Iteration:  3913
 O         0.346852         0.196052         0.431278
 C        -0.626652         1.181261         0.649664
 C        -2.038234         1.056026         0.205079
 C        -1.811465         1.641862         1.664982
 C        -1.282503         3.081802         1.628195
 C        -0.673623         3.583714         2.898585
 C         0.862116         3.797826         2.415253
 O         1.155138         2.879959         1.319184
 C        -0.142346         2.667143         0.683452
 H         1.124516         0.646769         0.891806
 H        -2.455914         1.716952        -0.522065
 H        -2.553204         0.116605         0.133612
 H        -2.216219         1.200889         2.642514
 H        -1.877268         4.047875         1.380088
 H        -1.105081         4.484233         3.331466
 H        -0.800872         2.889925         3.828083
 H         1.078776         4.813089         2.119121
 H         1.578573         3.609360         3.297785
 H        -0.099144         3.227832        -0.225655
