19
Iteration:  3240charge 0 multiplicity 1
 O         0.329230         0.264491         0.500080
 C        -0.649606         1.224980         0.576661
 C        -2.048624         1.007668         0.197493
 C        -1.811937         1.655264         1.591770
 C        -1.361700         3.076148         1.560301
 C        -0.625598         3.587454         2.959831
 C         0.900144         3.789985         2.373522
 O         1.136999         2.793763         1.445896
 C        -0.116882         2.707077         0.687674
 H         1.123138         0.841613         0.730680
 H        -2.654902         1.562905        -0.575867
 H        -2.385141         0.054119         0.423157
 H        -1.903596         1.155834         2.586727
 H        -2.090982         3.737012         1.044317
 H        -0.972370         4.641480         3.253335
 H        -0.502145         2.808045         3.763036
 H         1.025216         4.883792         2.001772
 H         1.636285         3.653571         3.167704
 H        -0.015867         3.232993        -0.262659
