19
Iteration:  1755charge 0 multiplicity 1
 O         0.412361         0.395342         0.528203
 C        -0.560147         1.309136         0.666400
 C        -1.971966         1.012206         0.417548
 C        -1.702772         1.639083         1.725111
 C        -1.411534         3.160685         1.608413
 C        -0.646433         3.873937         2.677379
 C         0.787462         3.175037         2.535380
 O         1.078253         2.848282         1.198229
 C        -0.201601         2.754155         0.593532
 H         1.241862         0.897249         0.662724
 H        -2.436321         1.389604        -0.435935
 H        -2.017072        -0.141052         0.347902
 H        -2.061723         1.138445         2.720237
 H        -2.268146         3.760462         1.123911
 H        -0.773319         4.992409         2.499519
 H        -1.018452         3.629843         3.730045
 H         1.536132         3.883945         2.867915
 H         0.750614         2.331941         3.204591
 H        -0.166949         3.227665        -0.398745
