19
Iteration:  4308charge 0 multiplicity 1
 O         0.175307         0.063060         0.569278
 C        -0.523445         1.224646         0.635821
 C        -1.933443         1.228508         0.116912
 C        -1.810859         1.546828         1.644421
 C        -1.356452         3.028392         1.644669
 C        -0.552713         3.471959         2.999564
 C         0.820018         3.882097         2.388115
 O         1.120866         3.016485         1.309225
 C        -0.105791         2.707602         0.671170
 H         1.091611         0.239146         0.364981
 H        -2.569639         1.792076        -0.539130
 H        -2.214003         0.181841        -0.082083
 H        -2.328881         0.877068         2.406656
 H        -2.119593         3.772293         1.392483
 H        -0.944362         4.316600         3.684588
 H        -0.472340         2.484899         3.601374
 H         0.809209         4.918385         1.935458
 H         1.836413         4.022246         2.926567
 H        -0.126537         3.134841        -0.315845
