19
Iteration:  1162
 O         0.283491         0.244914         0.656423
 C        -0.553604         1.343984         0.599585
 C        -2.033765         1.010840         0.294399
 C        -1.673143         1.585211         1.663449
 C        -1.355894         3.047275         1.583947
 C        -0.616236         3.752316         2.651265
 C         0.861478         3.342398         2.656361
 O         1.106425         3.034804         1.246683
 C        -0.225492         2.805448         0.529653
 H         1.175586         0.643970         0.892649
 H        -2.869578         1.504516        -0.382632
 H        -2.097943        -0.127813         0.307088
 H        -1.863185         0.877350         2.475847
 H        -2.077502         3.787612         1.302093
 H        -0.510594         4.801869         2.409864
 H        -1.028911         3.585724         3.666102
 H         1.596185         4.122066         2.930542
 H         1.141655         2.393904         3.224239
 H        -0.395437         3.386489        -0.387358
