19
Iteration:  2048charge 0 multiplicity 1
 O         0.430415         0.395078         0.525809
 C        -0.609992         1.269688         0.583118
 C        -1.985082         0.855273         0.375926
 C        -1.803410         1.687246         1.647258
 C        -1.394987         3.244242         1.537728
 C        -0.601074         3.728670         2.842905
 C         0.823105         3.337386         2.659929
 O         1.071558         2.869156         1.217546
 C        -0.218192         2.752047         0.532716
 H         1.235694         0.873392         0.624994
 H        -2.504640         1.381785        -0.556955
 H        -2.156550        -0.141091         0.595280
 H        -1.938811         1.227454         2.568579
 H        -2.090967         3.945044         1.084321
 H        -0.631132         4.747207         2.827711
 H        -0.875124         3.392724         3.843550
 H         1.569792         4.107869         2.724950
 H         1.075714         2.487374         3.328755
 H        -0.092873         3.353677        -0.461159
