19
Iteration:  1286charge 0 multiplicity 1
 O         0.517682         0.401908         0.610353
 C        -0.548429         1.199216         0.743075
 C        -1.950651         1.069808         0.393967
 C        -1.761847         1.768892         1.702972
 C        -1.333761         3.200364         1.525584
 C        -0.642459         3.678107         2.759750
 C         0.801471         3.180222         2.578833
 O         0.978975         2.933268         1.181709
 C        -0.286170         2.702281         0.448350
 H         1.134188         1.105493         0.716617
 H        -2.291676         1.530087        -0.553835
 H        -2.369625        -0.009220         0.277108
 H        -2.335622         1.408690         2.653241
 H        -1.987603         3.888459         1.015778
 H        -0.750491         4.765637         2.924170
 H        -1.056427         3.204009         3.630143
 H         1.614591         3.936972         2.787724
 H         1.022515         2.238131         3.163236
 H        -0.112145         3.082684        -0.484993
