19
Iteration:  3835
 O         0.353985         0.191547         0.425534
 C        -0.679119         1.207145         0.661728
 C        -2.016518         1.156580         0.169788
 C        -1.722939         1.572848         1.624383
 C        -1.264760         2.976473         1.678748
 C        -0.594089         3.659021         2.878715
 C         0.844183         3.918935         2.419851
 O         1.029269         2.780723         1.405425
 C        -0.179487         2.673138         0.697321
 H         1.139195         0.482674         0.952742
 H        -2.072846         1.858720        -0.670699
 H        -2.596043         0.246441         0.017140
 H        -2.088199         0.960696         2.439311
 H        -2.068147         3.697156         1.297893
 H        -1.103312         4.578112         3.212678
 H        -0.571710         2.799432         3.681512
 H         1.173308         4.833861         1.841646
 H         1.653563         3.815448         3.195908
 H        -0.098226         3.286585        -0.194236
