19
Iteration:  4405
 O         0.396734         0.216626         0.506949
 C        -0.583846         1.218350         0.653867
 C        -2.100691         1.135595         0.156515
 C        -1.751163         1.557651         1.601142
 C        -1.245028         3.066253         1.695952
 C        -0.662311         3.587664         2.896967
 C         0.880323         3.744113         2.422920
 O         1.081904         2.867665         1.377612
 C        -0.201359         2.691464         0.661282
 H         1.085157         0.828627         0.162629
 H        -2.659284         1.837375        -0.503345
 H        -2.707507         0.239219         0.173797
 H        -1.954443         0.964269         2.498155
 H        -2.039179         3.695901         1.225212
 H        -1.090486         4.518269         3.095514
 H        -0.850311         3.090098         3.836908
 H         1.010677         4.777779         2.080608
 H         1.724698         3.559566         3.155514
 H        -0.053979         3.212809        -0.302820
