19
Iteration:  4009charge 0 multiplicity 1
 O         0.217442         0.085762         0.548447
 C        -0.582989         1.181330         0.691292
 C        -1.942596         1.163065         0.201067
 C        -1.794164         1.642225         1.628799
 C        -1.335013         3.103240         1.600613
 C        -0.588110         3.408098         2.918008
 C         0.856116         3.883214         2.420476
 O         1.134050         2.994142         1.339424
 C        -0.134839         2.700214         0.622961
 H         1.075377         0.515480         0.635977
 H        -2.271580         1.924393        -0.595030
 H        -2.362867         0.143721         0.142804
 H        -2.490704         1.062861         2.316543
 H        -2.128725         3.675959         1.238050
 H        -1.101196         4.066932         3.589014
 H        -0.499421         2.540043         3.599124
 H         0.768434         4.963724         1.883342
 H         1.729677         3.889887         3.054077
 H         0.066792         3.053728        -0.429574
