19
Iteration:  2919charge 0 multiplicity 1
 O         0.149636         0.148560         0.509432
 C        -0.619740         1.256401         0.558121
 C        -1.992398         1.038317         0.141946
 C        -1.677885         1.528736         1.550653
 C        -1.317264         3.064473         1.644318
 C        -0.543681         3.646638         2.979330
 C         0.843390         3.869203         2.396399
 O         1.117689         2.856410         1.426492
 C        -0.115043         2.730732         0.659048
 H         0.984934         0.269730         1.055976
 H        -2.484921         1.818225        -0.432188
 H        -2.272721         0.004169         0.127420
 H        -2.036053         1.132065         2.575299
 H        -2.094282         3.685672         1.185002
 H        -0.982868         4.527205         3.485901
 H        -0.485278         2.694068         3.692083
 H         0.670395         4.948137         1.939620
 H         1.681225         3.900089         3.125377
 H        -0.038040         3.413909        -0.254972
