19
Iteration:  1813charge 0 multiplicity 1
 O         0.232030         0.185104         0.560389
 C        -0.486173         1.332937         0.623709
 C        -1.929710         0.951262         0.459219
 C        -1.595976         1.597787         1.708918
 C        -1.301531         3.104050         1.541923
 C        -0.669593         3.841249         2.676351
 C         0.730436         3.159192         2.668703
 O         1.083308         3.110746         1.151943
 C        -0.233035         2.890151         0.539234
 H         1.114633         0.385432         0.861009
 H        -2.560887         1.565153        -0.234650
 H        -1.988049        -0.039633         0.227273
 H        -1.762643         1.152365         2.608107
 H        -2.114488         3.753209         1.124472
 H        -0.720409         4.898179         2.520375
 H        -1.085272         3.578479         3.590669
 H         1.574419         3.778575         3.119346
 H         0.706051         2.208444         3.182465
 H        -0.232831         3.568649        -0.385110
