19
Iteration:   265
 O         0.142144         0.070784         0.454990
 C        -0.605164         1.264931         0.685031
 C        -2.114861         1.108641         0.244429
 C        -1.809163         1.546750         1.619591
 C        -1.194181         3.022567         1.590570
 C        -0.571241         3.600495         2.829470
 C         0.849303         3.893789         2.445643
 O         1.165951         2.985282         1.392863
 C        -0.029885         2.663814         0.674313
 H         0.996615         0.175314         0.885438
 H        -2.647853         1.752383        -0.398543
 H        -2.264553         0.082452         0.026143
 H        -1.993957         0.917487         2.555673
 H        -1.911890         3.662167         1.238794
 H        -1.005643         4.594879         3.049835
 H        -0.702596         2.989809         3.707378
 H         0.908188         4.842710         2.024801
 H         1.562281         3.836118         3.198382
 H        -0.018921         3.128250        -0.287802
