19
Iteration:  2936
 O         0.235489         0.158882         0.450103
 C        -0.609989         1.252244         0.580085
 C        -2.006083         1.125235         0.143962
 C        -1.742863         1.618990         1.669687
 C        -1.253698         3.093657         1.710745
 C        -0.570804         3.567783         2.996602
 C         0.779449         3.899130         2.291994
 O         1.061022         2.747594         1.460508
 C        -0.081677         2.716786         0.630986
 H         1.013530         0.380818         1.072062
 H        -2.493256         1.587285        -0.751559
 H        -2.102325        -0.014514         0.231352
 H        -1.989961         0.902289         2.395083
 H        -1.973388         3.881004         1.396962
 H        -1.122592         4.529614         3.158326
 H        -0.518428         2.881061         3.779178
 H         0.716277         4.829749         1.766208
 H         1.570779         4.106913         3.035604
 H         0.129705         3.212273        -0.304924
