19
Iteration:   742
 O         0.280130         0.139109         0.584482
 C        -0.523445         1.252197         0.693976
 C        -2.072968         1.086089         0.352291
 C        -1.659382         1.625459         1.683050
 C        -1.329367         3.101015         1.534095
 C        -0.608553         3.723745         2.755709
 C         0.802143         3.204845         2.622229
 O         1.065787         3.311638         1.189467
 C        -0.099641         2.714234         0.506381
 H         1.028320         0.247368         1.083636
 H        -2.613037         1.853529        -0.439648
 H        -2.459318         0.049691         0.405209
 H        -2.129812         1.184501         2.569833
 H        -1.918117         3.945254         1.168754
 H        -0.716913         4.871570         2.552635
 H        -1.221861         3.384583         3.608375
 H         1.498262         3.820041         3.139082
 H         0.974746         2.155250         2.933121
 H         0.069964         2.892678        -0.547128
