19
Iteration:  1267charge 0 multiplicity 1
 O         0.496084         0.307535         0.722433
 C        -0.604790         1.270019         0.635782
 C        -2.041386         1.037414         0.249532
 C        -1.666606         1.630378         1.611708
 C        -1.419568         3.160428         1.546027
 C        -0.593793         3.727242         2.771180
 C         0.832506         3.213930         2.585988
 O         1.019730         2.985129         1.162204
 C        -0.249250         2.809646         0.570392
 H         1.258613         0.829064         0.813952
 H        -2.681407         1.547897        -0.407897
 H        -2.478416         0.038967         0.511452
 H        -1.902155         1.132213         2.611413
 H        -2.240692         3.947417         1.285150
 H        -0.418996         4.862625         2.842297
 H        -1.071573         3.454447         3.711290
 H         1.615499         3.982904         2.826502
 H         1.000776         2.290743         3.147575
 H        -0.267274         3.141696        -0.514231
