19
Iteration:  2573
 O         0.327658         0.206418         0.536414
 C        -0.542300         1.282584         0.702262
 C        -1.987630         1.088732         0.329949
 C        -1.697086         1.594358         1.748591
 C        -1.378257         3.069082         1.579269
 C        -0.589730         3.667585         2.677076
 C         0.834191         3.368064         2.648299
 O         1.011922         3.148068         1.157032
 C        -0.131598         2.741228         0.536621
 H         1.132679         0.411598         1.008476
 H        -2.489842         1.797692        -0.392607
 H        -2.437939         0.166295         0.227336
 H        -1.986091         1.122841         2.720356
 H        -2.210800         3.634524         1.136096
 H        -0.735929         4.755417         2.905955
 H        -1.054868         3.203471         3.658611
 H         1.584392         4.133749         2.933104
 H         0.957777         2.399201         3.145483
 H        -0.132305         3.067812        -0.476854
