19
Iteration:  2239
 O         0.304914         0.179202         0.531307
 C        -0.559202         1.268478         0.672334
 C        -1.948442         1.066907         0.317393
 C        -1.637526         1.580165         1.757041
 C        -1.289697         3.116435         1.562850
 C        -0.649062         3.765233         2.769122
 C         0.742979         3.271019         2.605613
 O         0.970057         3.155139         1.148686
 C        -0.152100         2.759805         0.576134
 H         1.151620         0.387870         0.931760
 H        -2.262288         1.769851        -0.540599
 H        -2.053666         0.058720         0.156025
 H        -1.745870         1.140243         2.712731
 H        -2.034691         3.768753         1.131404
 H        -0.638188         4.906197         2.801162
 H        -0.992415         3.401482         3.713959
 H         1.582881         3.898532         3.009221
 H         0.811845         2.287422         3.138083
 H        -0.158964         3.197750        -0.432035
