19
Iteration:  3029charge 0 multiplicity 1
 O         0.264571         0.225931         0.541177
 C        -0.627233         1.297026         0.603662
 C        -2.072098         1.053921         0.253604
 C        -1.659671         1.548839         1.678176
 C        -1.304076         3.064473         1.494215
 C        -0.608063         3.541143         2.863613
 C         0.880242         3.724488         2.509865
 O         1.048724         2.931282         1.340341
 C        -0.098791         2.771133         0.582676
 H         0.677086         0.348124         1.396994
 H        -2.535318         1.714640        -0.448036
 H        -2.352607         0.074414         0.278627
 H        -2.008106         1.089644         2.568030
 H        -2.047036         3.717984         1.025298
 H        -0.964873         4.479060         3.240105
 H        -0.662601         2.662503         3.612674
 H         1.208173         4.754495         2.340041
 H         1.687251         3.340774         3.064707
 H         0.009926         3.385546        -0.382562
