19
Iteration:  2515
 O         0.445062         0.323548         0.605760
 C        -0.524879         1.319585         0.663061
 C        -1.949817         0.957776         0.363869
 C        -1.683063         1.701220         1.707073
 C        -1.423608         3.239414         1.556142
 C        -0.604222         3.745140         2.775086
 C         0.797119         3.059514         2.602472
 O         1.004996         3.013230         1.118320
 C        -0.273270         2.833161         0.543134
 H         1.314820         0.689803         0.956743
 H        -2.544955         1.455528        -0.476300
 H        -2.126383        -0.203548         0.505283
 H        -2.087020         1.289166         2.619540
 H        -2.158214         3.904260         1.121730
 H        -0.371537         4.786503         2.581223
 H        -1.166742         3.582684         3.698845
 H         1.565247         3.642325         3.054050
 H         0.806203         2.037268         2.987753
 H        -0.340235         3.263254        -0.535350
