19
Iteration:  2785
 O         0.344976         0.224801         0.575633
 C        -0.586130         1.239656         0.717507
 C        -2.031875         1.121802         0.138191
 C        -1.801614         1.614513         1.588148
 C        -1.342301         3.112484         1.622774
 C        -0.504341         3.474701         2.893786
 C         0.868311         3.819097         2.359643
 O         1.072248         2.872067         1.363452
 C        -0.230090         2.663734         0.638440
 H         1.157980         0.589019         0.997333
 H        -2.327614         1.759625        -0.643308
 H        -2.548876         0.238102         0.014523
 H        -2.179895         1.175747         2.427632
 H        -1.998947         3.936991         1.246804
 H        -1.077475         4.236522         3.533151
 H        -0.327648         2.553409         3.608290
 H         1.046807         4.845613         2.068938
 H         1.439433         3.470137         3.210992
 H        -0.172959         3.184098        -0.356676
