19
Iteration:  1091
 O         0.367045         0.254119         0.489297
 C        -0.575516         1.297936         0.674737
 C        -2.083022         0.930447         0.441877
 C        -1.716537         1.624272         1.720368
 C        -1.306520         3.146329         1.461365
 C        -0.593221         3.853045         2.669929
 C         0.740390         3.137509         2.687292
 O         1.154943         3.142616         1.241207
 C        -0.185730         2.786573         0.542870
 H         1.236163         0.760563         0.750106
 H        -2.597149         1.357847        -0.355675
 H        -2.137297        -0.088582         0.459890
 H        -2.023065         1.231766         2.646796
 H        -2.165603         3.835251         1.237418
 H        -0.599030         4.939431         2.456524
 H        -1.148636         3.592037         3.531985
 H         1.422691         3.584242         3.399354
 H         0.507579         2.118046         2.986409
 H        -0.050177         3.114665        -0.553485
