19
Iteration:   253charge 0 multiplicity 1
 O         0.173920         0.081096         0.512669
 C        -0.611500         1.205204         0.568094
 C        -2.105289         1.162265         0.272140
 C        -1.633699         1.568765         1.657529
 C        -1.320351         3.046612         1.583748
 C        -0.629212         3.663907         2.892643
 C         0.879414         3.874297         2.468022
 O         1.130452         2.912355         1.382236
 C        -0.065416         2.662118         0.540256
 H         1.100551         0.407508         0.931863
 H        -2.640261         1.828407        -0.394178
 H        -2.373359         0.148290         0.249439
 H        -2.023824         1.084739         2.617125
 H        -1.975460         3.698502         1.135220
 H        -1.214102         4.507138         3.286642
 H        -0.554893         2.868516         3.628198
 H         1.138116         4.865585         2.229668
 H         1.494821         3.522285         3.261125
 H         0.158621         3.065197        -0.421453
