19
Iteration:  4241charge 0 multiplicity 1
 O         0.302890         0.146003         0.632375
 C        -0.633094         1.268774         0.628574
 C        -1.959908         1.163610         0.138377
 C        -1.732565         1.566482         1.647826
 C        -1.291387         3.059693         1.644612
 C        -0.561733         3.455032         2.920404
 C         0.801706         3.824839         2.379523
 O         1.137572         2.912766         1.352515
 C        -0.158602         2.775754         0.625949
 H         0.335021        -0.235231        -0.279925
 H        -2.355811         1.965227        -0.537757
 H        -2.483647         0.214242         0.040026
 H        -2.198959         1.044321         2.480994
 H        -2.067347         3.774990         1.316448
 H        -1.118528         4.161390         3.559298
 H        -0.657225         2.591578         3.688243
 H         0.548194         4.870493         1.940619
 H         1.687751         3.942500         3.090619
 H        -0.149273         3.451879        -0.237038
