19
Iteration:  2462charge 0 multiplicity 1
 O         0.397172         0.329867         0.629399
 C        -0.590472         1.298362         0.603646
 C        -1.989959         1.028351         0.334151
 C        -1.666225         1.653374         1.671436
 C        -1.346258         3.092164         1.634828
 C        -0.581350         3.761721         2.754326
 C         0.814172         3.230126         2.592325
 O         1.023228         2.973084         1.170697
 C        -0.263633         2.819831         0.490134
 H         1.233070         0.618856         0.937707
 H        -2.377817         1.486294        -0.566309
 H        -2.348201         0.046088         0.613396
 H        -1.727041         1.026418         2.550842
 H        -2.195803         3.699109         1.319386
 H        -0.676661         4.867068         2.690698
 H        -1.101503         3.401371         3.714600
 H         1.534846         3.940869         2.912549
 H         0.856905         2.277798         3.141420
 H        -0.288831         3.285287        -0.458424
