19
Iteration:  3975
 O         0.292219         0.220967         0.612380
 C        -0.646495         1.253072         0.543938
 C        -1.999354         1.112954         0.224615
 C        -1.780025         1.558426         1.569652
 C        -1.270920         3.058821         1.622775
 C        -0.557573         3.465977         3.033332
 C         0.909234         3.839117         2.394831
 O         1.053007         2.891230         1.339684
 C        -0.115356         2.751043         0.547714
 H         0.548805         0.205057         1.562040
 H        -2.490428         1.851635        -0.572037
 H        -2.309488         0.093074         0.004835
 H        -2.169529         0.982221         2.443101
 H        -2.023846         3.741816         1.367349
 H        -1.136743         4.326767         3.293123
 H        -0.664070         2.585222         3.637078
 H         0.805205         4.928151         1.853206
 H         1.719046         3.898079         3.066511
 H        -0.121855         3.212283        -0.495805
