19
Iteration:  2481charge 0 multiplicity 1
 O         0.518222         0.431557         0.641266
 C        -0.664914         1.292608         0.617329
 C        -2.135469         0.998370         0.385195
 C        -1.655281         1.634317         1.707201
 C        -1.387507         3.181324         1.419782
 C        -0.601912         3.666340         2.768077
 C         0.880427         3.169313         2.614177
 O         1.032463         2.976613         1.205777
 C        -0.225441         2.747447         0.536150
 H         1.237372         1.037597         0.714214
 H        -2.866954         1.662770        -0.093990
 H        -2.259704        -0.236612         0.228959
 H        -2.071426         1.226565         2.675592
 H        -2.070403         3.944013         1.074911
 H        -0.632681         4.754340         2.707412
 H        -1.115632         3.463788         3.680019
 H         1.531775         3.978032         2.965525
 H         1.158375         2.228589         3.094256
 H        -0.087304         3.234099        -0.543763
