19
Iteration:  4692charge 0 multiplicity 1
 O         0.272370         0.207688         0.415902
 C        -0.559739         1.258127         0.648554
 C        -1.960766         1.146125         0.234895
 C        -1.830972         1.531103         1.642082
 C        -1.335446         3.046712         1.616664
 C        -0.633834         3.476849         2.954994
 C         0.836649         3.844693         2.416211
 O         1.152145         2.881720         1.383741
 C        -0.163221         2.703295         0.649739
 H         1.171720         0.496999         0.564077
 H        -2.283233         1.951287        -0.422653
 H        -2.203526         0.172660        -0.008247
 H        -2.400852         1.145234         2.622246
 H        -2.024470         3.888639         1.181086
 H        -1.052025         4.418454         3.312019
 H        -0.547546         2.730335         3.746021
 H         0.815145         4.885194         2.027574
 H         1.741935         3.786664         3.199602
 H        -0.092245         3.097924        -0.339267
