19
Iteration:  2221charge 0 multiplicity 1
 O         0.415674         0.288301         0.561632
 C        -0.586979         1.250002         0.669773
 C        -2.025226         1.033344         0.257826
 C        -1.749071         1.556611         1.626068
 C        -1.440976         3.055145         1.604414
 C        -0.552314         3.786312         2.748697
 C         0.918469         3.312774         2.628682
 O         1.095921         3.082998         1.214995
 C        -0.253508         2.746867         0.577419
 H         1.111917         0.574331         1.149843
 H        -2.645881         1.634272        -0.369674
 H        -2.414623         0.036197         0.299321
 H        -2.232588         1.000827         2.409583
 H        -2.320949         3.696718         1.319518
 H        -0.681928         4.879608         2.497416
 H        -1.083639         3.708009         3.748180
 H         1.612323         4.076485         2.911917
 H         1.196226         2.440115         3.258928
 H        -0.294444         3.220154        -0.378322
