19
Iteration:   532
 O         0.339204         0.371768         0.500323
 C        -0.624414         1.284569         0.599790
 C        -2.029342         1.033688         0.305745
 C        -1.744565         1.573418         1.733573
 C        -1.392059         3.061897         1.568634
 C        -0.545220         3.834760         2.673704
 C         0.859083         3.381607         2.552517
 O         1.072928         2.865646         1.322299
 C        -0.154246         2.713516         0.644429
 H         1.100927         0.762727         0.880917
 H        -2.577491         1.686030        -0.482673
 H        -2.344171        -0.066436         0.432022
 H        -2.053613         0.982494         2.646819
 H        -2.185485         3.660434         1.178322
 H        -0.520395         4.930600         2.329109
 H        -0.924045         3.734398         3.762969
 H         1.486609         4.199750         2.762458
 H         1.183501         2.675697         3.365356
 H        -0.041768         3.129371        -0.347729
