19
Iteration:   566
 O         0.331691         0.156891         0.482528
 C        -0.577437         1.185156         0.600920
 C        -2.018980         1.193758         0.282519
 C        -1.569167         1.531308         1.755335
 C        -1.330488         3.075401         1.638139
 C        -0.634033         3.915690         2.701494
 C         0.771308         3.436866         2.560621
 O         1.073330         2.956919         1.254299
 C        -0.177420         2.683734         0.658072
 H         1.155784         0.550964         0.814119
 H        -2.407640         1.952017        -0.504767
 H        -2.824171         0.396000         0.358665
 H        -2.098698         0.977291         2.524578
 H        -2.152765         3.530841         1.104205
 H        -0.851034         5.053906         2.701987
 H        -0.926514         3.587399         3.766596
 H         1.466562         4.186587         2.704074
 H         0.858742         2.606124         3.315898
 H        -0.109944         3.166098        -0.310480
