19
Iteration:  3715charge 0 multiplicity 1
 O         0.349146         0.174312         0.603069
 C        -0.632461         1.159727         0.659793
 C        -2.002910         1.155441         0.169929
 C        -1.847200         1.535575         1.569389
 C        -1.323627         3.067930         1.617937
 C        -0.562531         3.523755         2.855150
 C         0.951952         3.820880         2.500686
 O         1.103040         2.959356         1.301861
 C        -0.218656         2.711080         0.651964
 H         1.148057         0.670565         0.900720
 H        -2.326535         1.869242        -0.512788
 H        -2.544943         0.200089         0.004153
 H        -2.440722         1.131761         2.338447
 H        -2.056105         3.842279         1.281529
 H        -1.050951         4.419743         3.159352
 H        -0.489226         2.613941         3.491783
 H         1.087749         4.896036         2.234835
 H         1.542430         3.384575         3.336959
 H        -0.325829         3.230065        -0.375912
