19
Iteration:  2578charge 0 multiplicity 1
 O         0.324830         0.204712         0.518977
 C        -0.575574         1.287084         0.679005
 C        -1.962244         1.071459         0.323363
 C        -1.670314         1.602786         1.726874
 C        -1.357548         3.106459         1.574259
 C        -0.630974         3.682649         2.744579
 C         0.845338         3.395808         2.665922
 O         1.000479         3.121232         1.146048
 C        -0.156532         2.697653         0.565148
 H         1.195952         0.318398         0.972958
 H        -2.394444         1.770976        -0.363200
 H        -2.423057         0.001864         0.272441
 H        -2.090886         1.227907         2.663943
 H        -2.120936         3.786153         1.134187
 H        -0.797335         4.736440         2.932512
 H        -0.961345         3.262149         3.642317
 H         1.575286         4.212803         2.809264
 H         1.119102         2.411095         3.100712
 H        -0.064759         3.033387        -0.528249
