19
Iteration:  2340
 O         0.484510         0.455053         0.587458
 C        -0.686946         1.237259         0.646083
 C        -2.106752         1.064112         0.261650
 C        -1.662020         1.576590         1.701383
 C        -1.351597         3.084337         1.605731
 C        -0.575132         3.784754         2.717587
 C         0.856322         3.386283         2.576852
 O         0.999116         2.835027         1.246092
 C        -0.192146         2.677455         0.539796
 H         1.266246         1.014691         0.930120
 H        -2.506467         1.753633        -0.436941
 H        -2.552971         0.012059         0.083912
 H        -2.162738         1.043502         2.596644
 H        -2.349907         3.462075         1.332843
 H        -0.576723         4.926611         2.797809
 H        -0.759969         3.571432         3.817881
 H         1.477563         4.250034         2.642915
 H         1.230067         2.599452         3.338392
 H        -0.033153         3.091496        -0.400238
