19
Iteration:  3133charge 0 multiplicity 1
 O         0.230772         0.103097         0.566599
 C        -0.532980         1.242847         0.618354
 C        -2.011750         1.200465         0.251129
 C        -1.739711         1.572931         1.629892
 C        -1.306064         3.062846         1.592349
 C        -0.587246         3.434217         2.843423
 C         0.857938         3.945748         2.380887
 O         1.053010         2.940298         1.428197
 C        -0.116558         2.699186         0.580569
 H         1.001211         0.277578         1.207257
 H        -2.369328         1.980112        -0.554202
 H        -2.515779         0.257727         0.018820
 H        -2.218305         0.956774         2.474468
 H        -2.098877         3.741114         1.272142
 H        -1.150515         3.874009         3.676178
 H        -0.362342         2.525252         3.276356
 H         0.777550         4.925616         1.911090
 H         1.702969         3.760944         3.106237
 H         0.078425         3.201341        -0.427550
