19
Iteration:  1310
 O         0.420621         0.386674         0.586702
 C        -0.560762         1.333282         0.753802
 C        -2.055025         0.960442         0.391522
 C        -1.796579         1.688774         1.652258
 C        -1.404155         3.156264         1.523138
 C        -0.625525         3.695668         2.690185
 C         0.832690         3.157275         2.640337
 O         1.114437         3.042629         1.159059
 C        -0.153063         2.778131         0.520691
 H         1.262414         0.703457         1.116382
 H        -2.584486         1.232527        -0.498719
 H        -2.296694        -0.134033         0.457718
 H        -2.128716         1.139210         2.604718
 H        -2.289701         3.686841         1.067783
 H        -0.790808         4.823586         2.544988
 H        -1.025707         3.460963         3.664038
 H         1.674764         3.771956         3.097927
 H         0.901623         2.103918         3.002341
 H         0.018974         3.214634        -0.424228
