19
Iteration:  1998charge 0 multiplicity 1
 O         0.408608         0.325407         0.636807
 C        -0.597928         1.326533         0.656749
 C        -2.088682         1.067046         0.315436
 C        -1.615074         1.549935         1.729965
 C        -1.325812         3.062313         1.594097
 C        -0.682057         3.782957         2.703439
 C         0.796948         3.119215         2.589812
 O         1.069714         3.110979         1.187966
 C        -0.189026         2.790910         0.498189
 H         1.326677         0.696215         0.771120
 H        -2.745225         1.657640        -0.246704
 H        -2.297521        -0.040587         0.248217
 H        -1.747534         1.049623         2.701861
 H        -2.255111         3.543946         1.179382
 H        -0.505729         4.928793         2.433640
 H        -1.241236         3.770305         3.676101
 H         1.595044         3.746998         3.057175
 H         0.913469         2.112655         3.027408
 H        -0.124932         3.270187        -0.465566
