19
Iteration:  1174charge 0 multiplicity 1
 O         0.260794         0.206708         0.590814
 C        -0.606799         1.296716         0.701559
 C        -1.958230         1.000746         0.324267
 C        -1.734652         1.564856         1.735777
 C        -1.379388         3.069800         1.482354
 C        -0.590523         3.706787         2.671785
 C         0.885940         3.308107         2.642147
 O         1.103027         3.134546         1.213992
 C        -0.163569         2.842108         0.543542
 H         1.232912         0.497575         0.689232
 H        -2.465525         1.805957        -0.368207
 H        -2.332140        -0.007376         0.289621
 H        -1.943480         1.206866         2.708589
 H        -2.217410         3.580158         1.090318
 H        -0.790816         4.736414         2.527983
 H        -1.095692         3.504712         3.649292
 H         1.405711         4.181905         3.049006
 H         1.099926         2.402976         3.299821
 H         0.001959         3.261698        -0.399830
