19
Iteration:  1491charge 0 multiplicity 1
 O         0.270763         0.252188         0.458345
 C        -0.580736         1.242080         0.818150
 C        -1.925104         0.912218         0.281417
 C        -1.727964         1.639957         1.672209
 C        -1.376511         3.172836         1.585491
 C        -0.610188         3.833935         2.768279
 C         0.862914         3.321804         2.637174
 O         1.096259         3.100340         1.193209
 C        -0.220421         2.724973         0.603558
 H         1.275387         0.509132         0.718059
 H        -2.320633         1.257964        -0.639208
 H        -2.212519        -0.170897         0.423516
 H        -2.125328         0.985150         2.528662
 H        -2.113274         3.740768         0.888949
 H        -0.872519         4.836371         2.506332
 H        -1.084859         3.575714         3.754783
 H         1.637788         4.022184         2.862182
 H         1.159188         2.412729         3.239075
 H        -0.131707         3.123544        -0.469848
