19
Iteration:  4583
 O         0.274431         0.161601         0.637373
 C        -0.577484         1.239829         0.668142
 C        -1.980971         1.169685         0.203399
 C        -1.775377         1.634667         1.568046
 C        -1.331571         3.032367         1.675877
 C        -0.609781         3.384931         2.942522
 C         0.815170         3.767788         2.494300
 O         1.105492         3.018567         1.206102
 C        -0.126441         2.723279         0.574190
 H         1.011864         0.537330         0.146037
 H        -2.215826         1.828188        -0.598977
 H        -2.374689         0.181261         0.096562
 H        -2.167305         1.060464         2.506912
 H        -2.105811         3.808699         1.398274
 H        -1.174377         4.204291         3.501311
 H        -0.508452         2.529923         3.612914
 H         0.985204         4.814985         2.192529
 H         1.722085         3.537507         3.185262
 H        -0.065344         3.277806        -0.417279
