19
Iteration:   117
 O         0.270289         0.034635         0.564323
 C        -0.639015         1.115818         0.630404
 C        -2.085614         1.045242         0.251067
 C        -1.607221         1.589894         1.687902
 C        -1.241387         3.071012         1.601493
 C        -0.577101         3.798603         2.766714
 C         0.836229         3.316546         2.596790
 O         1.085772         3.393698         1.179473
 C        -0.167030         2.824669         0.624811
 H         0.655924        -0.209511         1.519751
 H        -2.657208         1.616448        -0.581480
 H        -2.429921         0.019340         0.417497
 H        -2.005051         1.163372         2.627715
 H        -2.070405         3.746605         1.193925
 H        -0.655437         4.883905         2.488505
 H        -1.029209         3.635504         3.785878
 H         1.676976         3.863924         3.051852
 H         0.823014         2.182568         2.710873
 H        -0.077528         3.212239        -0.398406
