19
Iteration:  3773charge 0 multiplicity 1
 O         0.194793         0.142714         0.566116
 C        -0.578163         1.234833         0.555828
 C        -2.112291         1.093450         0.209953
 C        -1.641574         1.548055         1.569998
 C        -1.316346         3.090892         1.614547
 C        -0.585147         3.506330         2.883639
 C         0.847765         3.856045         2.443924
 O         1.025557         2.937958         1.409163
 C        -0.032152         2.751073         0.574958
 H         0.862110         0.467046         1.210465
 H        -2.562997         1.754987        -0.540063
 H        -2.160254         0.062154        -0.064030
 H        -1.786329         0.919691         2.527453
 H        -2.128804         3.742576         1.410085
 H        -0.968119         4.222538         3.583405
 H        -0.452957         2.777076         3.650419
 H         0.957239         4.937969         2.221520
 H         1.697995         3.736053         3.234337
 H         0.174014         3.212903        -0.441603
