19
Iteration:  1807charge 0 multiplicity 1
 O         0.275232         0.167565         0.551828
 C        -0.542958         1.327421         0.609407
 C        -1.954285         0.971163         0.443936
 C        -1.571920         1.613144         1.713142
 C        -1.297451         3.127438         1.536911
 C        -0.632345         3.846741         2.683283
 C         0.721315         3.147050         2.655149
 O         1.064017         3.138019         1.186718
 C        -0.182518         2.892803         0.515292
 H         1.203619         0.514870         0.891853
 H        -2.835631         1.469140        -0.026843
 H        -2.100101        -0.184384         0.315080
 H        -1.722333         1.008263         2.704737
 H        -2.144051         3.590290         1.025988
 H        -0.623775         4.961438         2.464291
 H        -1.180525         3.639804         3.705879
 H         1.404363         3.692812         3.254769
 H         0.547363         2.084122         3.042414
 H        -0.300852         3.332514        -0.454180
