19
Iteration:  1651
 O         0.294148         0.131119         0.627894
 C        -0.625049         1.160151         0.668529
 C        -2.049893         0.925051         0.248662
 C        -1.632452         1.572334         1.692278
 C        -1.347498         3.178258         1.565630
 C        -0.580971         3.732103         2.812852
 C         0.848687         3.302536         2.545436
 O         1.087018         3.322185         1.135440
 C        -0.162495         2.852333         0.591181
 H         0.997963         0.153530         1.316305
 H        -2.537816         1.453426        -0.602884
 H        -2.289522        -0.204177         0.349984
 H        -2.130901         1.085906         2.561520
 H        -2.077003         3.823515         1.156224
 H        -0.537093         4.832259         2.613730
 H        -1.109636         3.636856         3.796332
 H         1.542865         3.869646         3.236149
 H         0.917320         2.239511         2.884764
 H        -0.126866         3.292521        -0.393713
