19
Iteration:   862charge 0 multiplicity 1
 O         0.358043         0.312926         0.664823
 C        -0.534091         1.399809         0.579950
 C        -2.040723         0.960905         0.343657
 C        -1.653411         1.653335         1.665901
 C        -1.377216         3.169026         1.553180
 C        -0.626659         3.724993         2.711170
 C         0.869808         3.257061         2.631079
 O         1.038639         2.837854         1.210990
 C        -0.211518         2.900459         0.486633
 H         1.076246         0.599044         1.240081
 H        -2.756297         1.399022        -0.516806
 H        -2.355039        -0.173856         0.393326
 H        -1.937186         1.173800         2.695336
 H        -2.277083         3.734240         1.219168
 H        -0.551586         4.859694         2.557283
 H        -1.020013         3.543219         3.692642
 H         1.541053         4.057134         2.823934
 H         0.963871         2.429724         3.364565
 H         0.006676         3.277921        -0.513375
