19
Iteration:   241
 O         0.246498         0.098310         0.549084
 C        -0.609151         1.214966         0.546537
 C        -2.022602         1.131640         0.292268
 C        -1.520167         1.655729         1.703732
 C        -1.313116         3.153545         1.542850
 C        -0.645419         3.634079         2.838054
 C         0.838359         3.769612         2.476878
 O         1.048431         2.799068         1.345826
 C        -0.157281         2.735579         0.562002
 H         1.030068         0.383358         1.003728
 H        -2.367094         1.951369        -0.379870
 H        -2.710270         0.334449         0.328956
 H        -1.908392         1.035039         2.552518
 H        -2.229541         3.582353         1.263913
 H        -1.041080         4.546130         3.325799
 H        -0.817911         2.863199         3.603585
 H         1.177411         4.745906         2.158440
 H         1.550937         3.429960         3.246074
 H        -0.099386         3.315034        -0.339938
