19
Iteration:  3899charge 0 multiplicity 1
 O         0.332727         0.145775         0.413993
 C        -0.536521         1.225904         0.586035
 C        -2.063075         1.089043         0.323563
 C        -1.789345         1.625940         1.656677
 C        -1.329048         3.133240         1.563639
 C        -0.609867         3.606501         2.935347
 C         0.878414         3.814668         2.513890
 O         1.083400         2.855465         1.351766
 C        -0.145037         2.728700         0.607323
 H         1.057274         0.243362         1.050266
 H        -2.410127         1.828343        -0.515060
 H        -2.280634         0.011692         0.319709
 H        -2.152752         1.027289         2.497604
 H        -2.108869         3.646412         0.957647
 H        -1.123268         4.491822         3.339320
 H        -0.659582         2.680720         3.557267
 H         0.838623         4.784925         2.105277
 H         1.598862         3.504324         3.221956
 H        -0.131237         3.167156        -0.391734
