19
Iteration:  1000charge 0 multiplicity 1
 O         0.378741         0.207304         0.594855
 C        -0.582818         1.219312         0.690006
 C        -1.932629         1.006069         0.238769
 C        -1.807691         1.667727         1.578154
 C        -1.374374         3.185698         1.636939
 C        -0.623358         3.750937         2.818131
 C         0.917078         3.371241         2.534370
 O         1.025586         3.007961         1.203173
 C        -0.228571         2.768890         0.669908
 H         1.358820         0.547852         0.518649
 H        -2.302794         1.556836        -0.609799
 H        -2.370181        -0.051825         0.335309
 H        -2.432330         1.202794         2.444201
 H        -2.109896         3.861739         1.197962
 H        -0.600681         4.792235         2.755113
 H        -0.947561         3.324480         3.830605
 H         1.675221         4.180554         2.637488
 H         1.235587         2.515056         3.151252
 H        -0.239144         3.087161        -0.390081
