19
Iteration:  1389charge 0 multiplicity 1
 O         0.355453         0.241839         0.435432
 C        -0.565058         1.169549         0.781016
 C        -2.050080         0.964223         0.302433
 C        -1.820111         1.637538         1.696875
 C        -1.275054         3.133102         1.504656
 C        -0.598681         3.820996         2.790240
 C         0.903472         3.386695         2.612292
 O         1.031804         3.138225         1.255477
 C        -0.182199         2.673656         0.561430
 H         1.205116         0.254534         1.011127
 H        -2.582211         1.489279        -0.463509
 H        -2.281592        -0.021774         0.395289
 H        -2.134125         1.231163         2.589060
 H        -2.190506         3.688178         1.047682
 H        -0.694891         4.957931         2.638807
 H        -1.121033         3.506134         3.754134
 H         1.708405         4.080697         2.892979
 H         1.022692         2.401326         3.180788
 H         0.074059         3.007411        -0.460365
