19
Iteration:   244charge 0 multiplicity 1
 O         0.216630         0.090726         0.540182
 C        -0.609310         1.201500         0.532496
 C        -2.044070         1.144054         0.277109
 C        -1.531047         1.636770         1.709206
 C        -1.333361         3.125396         1.551474
 C        -0.650016         3.647432         2.870977
 C         0.857972         3.815686         2.478686
 O         1.079516         2.826210         1.354861
 C        -0.135031         2.704405         0.547070
 H         1.120784         0.449041         1.020998
 H        -2.426916         1.881474        -0.363318
 H        -2.675566         0.293934         0.333679
 H        -1.980268         1.043575         2.587555
 H        -2.203076         3.619952         1.177544
 H        -1.127764         4.535809         3.310745
 H        -0.689620         2.811312         3.578442
 H         1.188554         4.776130         2.249159
 H         1.503353         3.425702         3.183691
 H         0.040461         3.276620        -0.373362
