19
Iteration:  4337
 O         0.305732         0.188635         0.539661
 C        -0.578767         1.216016         0.627967
 C        -2.101592         1.198432         0.198887
 C        -1.724326         1.584872         1.609447
 C        -1.296049         3.020822         1.604718
 C        -0.586845         3.434092         2.908142
 C         0.844661         3.862689         2.412091
 O         1.111354         2.999906         1.343744
 C        -0.114182         2.691837         0.630978
 H         0.805843         0.031804         1.342392
 H        -2.636094         1.802970        -0.638502
 H        -2.458649         0.122542         0.251891
 H        -2.250166         0.960513         2.344043
 H        -2.077461         3.825526         1.453395
 H        -1.102943         4.067966         3.571368
 H        -0.589952         2.569078         3.576152
 H         0.926279         4.876123         1.995468
 H         1.642087         3.586695         3.093255
 H        -0.091274         3.134486        -0.400030
