19
Iteration:  3659
 O         0.356547         0.242543         0.605997
 C        -0.621545         1.264254         0.602105
 C        -2.045862         1.119514         0.164061
 C        -1.776929         1.598711         1.535214
 C        -1.332262         3.101975         1.581217
 C        -0.543136         3.483717         2.903089
 C         0.824316         3.778108         2.352429
 O         1.034348         2.851734         1.409772
 C        -0.117921         2.728782         0.642727
 H         0.929603         0.624407         1.278712
 H        -2.634441         1.733190        -0.451341
 H        -2.179229         0.101744         0.481556
 H        -1.948678         1.172021         2.531279
 H        -2.122980         3.773719         1.132194
 H        -1.026173         4.099785         3.687534
 H        -0.469083         2.554062         3.556072
 H         1.190657         4.805966         2.029898
 H         1.545095         3.534200         3.123406
 H        -0.031214         3.284848        -0.362012
