19
Iteration:  1701
 O         0.307527         0.219651         0.637028
 C        -0.565285         1.241104         0.743165
 C        -1.968238         1.124319         0.281939
 C        -1.660409         1.553908         1.718418
 C        -1.373528         3.093995         1.562740
 C        -0.636236         3.735963         2.767319
 C         0.808041         3.326479         2.572272
 O         1.111910         3.081926         1.114192
 C        -0.183569         2.774593         0.483316
 H         1.148286         0.466614         1.001354
 H        -2.422991         1.792676        -0.382158
 H        -2.404206         0.040319         0.294747
 H        -1.881727         1.118330         2.788591
 H        -2.335912         3.704890         1.329028
 H        -0.996869         4.776021         2.725254
 H        -1.016950         3.329544         3.721251
 H         1.526231         4.119134         2.876555
 H         0.992745         2.516271         3.281323
 H        -0.214635         3.207141        -0.580076
