19
Iteration:  3973
 O         0.292173         0.220679         0.621381
 C        -0.626199         1.260775         0.541912
 C        -2.020441         1.128151         0.226014
 C        -1.749406         1.544824         1.567403
 C        -1.279831         3.060010         1.630203
 C        -0.555499         3.469750         3.034443
 C         0.901283         3.832714         2.391795
 O         1.041648         2.879095         1.333637
 C        -0.113086         2.751028         0.548207
 H         0.541885         0.213655         1.537468
 H        -2.428582         1.810570        -0.654150
 H        -2.324064         0.080753         0.071850
 H        -2.162131         0.957751         2.351531
 H        -2.050634         3.835750         1.424290
 H        -1.086700         4.397795         3.272694
 H        -0.683140         2.618567         3.610265
 H         0.728601         4.912683         1.843930
 H         1.735737         3.856796         3.109199
 H        -0.139123         3.243750        -0.491739
