19
Iteration:  4963charge 0 multiplicity 1
 O         0.361956         0.207045         0.420666
 C        -0.635242         1.204939         0.639031
 C        -2.047160         1.160461         0.127220
 C        -1.786064         1.554021         1.604251
 C        -1.251720         2.948884         1.736521
 C        -0.581692         3.594355         2.962996
 C         0.783836         3.883316         2.366881
 O         1.121034         2.858687         1.356877
 C        -0.161667         2.706735         0.729232
 H         1.116338         0.372475         1.029648
 H        -2.438792         1.965911        -0.473510
 H        -2.479699         0.129026        -0.049597
 H        -2.312429         0.982202         2.365691
 H        -2.004593         3.694231         1.496092
 H        -1.067197         4.406171         3.471084
 H        -0.467137         2.774701         3.730719
 H         0.763582         4.813102         1.837477
 H         1.649129         3.882166         2.888946
 H        -0.176660         3.383395        -0.098967
