19
Iteration:  2393
 O         0.237443         0.073954         0.503545
 C        -0.522743         1.254866         0.734779
 C        -1.971570         1.077550         0.362098
 C        -1.666382         1.589595         1.708996
 C        -1.298383         3.159999         1.518726
 C        -0.714194         3.716929         2.810905
 C         0.839388         3.393945         2.606493
 O         1.090690         3.224521         1.173431
 C        -0.179969         2.734208         0.542293
 H         1.144901         0.249227         0.814579
 H        -2.443917         1.770801        -0.418352
 H        -2.318645        -0.055577         0.272579
 H        -1.654309         0.852801         2.565156
 H        -2.110308         3.719178         1.080928
 H        -0.866268         4.802844         2.937344
 H        -1.072847         3.190873         3.674117
 H         1.606143         4.103307         2.962836
 H         0.934134         2.411754         3.038112
 H        -0.154567         3.160647        -0.541332
