19
Iteration:  1574charge 0 multiplicity 1
 O         0.423272         0.347951         0.552183
 C        -0.595237         1.270814         0.731182
 C        -2.000440         0.864464         0.323263
 C        -1.798780         1.706730         1.668680
 C        -1.363961         3.140303         1.554209
 C        -0.534409         3.773264         2.704815
 C         0.848464         3.139461         2.633437
 O         1.024464         3.091731         1.204715
 C        -0.223070         2.773336         0.566253
 H         1.334691         0.717689         0.644226
 H        -2.599898         1.343787        -0.439715
 H        -2.189744        -0.301001         0.534710
 H        -2.337081         1.396153         2.643908
 H        -2.109738         3.774952         1.116341
 H        -0.368748         4.837227         2.373470
 H        -1.086499         3.777860         3.690264
 H         1.450533         4.019046         2.955318
 H         1.014651         2.237011         3.202786
 H        -0.112294         3.244633        -0.383174
