19
Iteration:  4188charge 0 multiplicity 1
 O         0.228181         0.208699         0.612150
 C        -0.559471         1.328791         0.657508
 C        -2.030520         1.154475         0.189834
 C        -1.680782         1.490199         1.601131
 C        -1.364991         3.020374         1.604430
 C        -0.625890         3.567914         2.930494
 C         0.821247         3.739337         2.450107
 O         1.140372         2.964513         1.284548
 C        -0.061096         2.674779         0.685770
 H         0.365273         0.060723        -0.361192
 H        -2.662049         1.774277        -0.368638
 H        -2.203190         0.158539        -0.125056
 H        -1.880028         0.951544         2.547567
 H        -2.078194         3.663728         1.161313
 H        -1.154563         4.555941         3.120955
 H        -0.837400         2.863917         3.781423
 H         1.108987         4.758016         2.266934
 H         1.696414         3.592298         3.155390
 H        -0.079728         3.233988        -0.314131
