19
Iteration:  4110
 O         0.309355         0.191283         0.509920
 C        -0.551174         1.277139         0.648117
 C        -2.070023         1.157038         0.198318
 C        -1.768104         1.536935         1.640987
 C        -1.331389         3.108843         1.606583
 C        -0.601828         3.528688         2.852965
 C         0.875895         3.838633         2.397340
 O         1.075470         2.857030         1.435739
 C        -0.150101         2.674594         0.658066
 H         1.216040         0.621754         0.564159
 H        -2.676067         1.740608        -0.452549
 H        -2.319271         0.096039         0.115668
 H        -2.005829         1.006220         2.536010
 H        -1.994189         3.803592         1.160788
 H        -1.116974         4.376525         3.354170
 H        -0.599340         2.583772         3.477670
 H         1.026177         4.846221         1.888984
 H         1.658991         3.571729         3.171983
 H        -0.037628         3.209308        -0.336505
