19
Iteration:  2839charge 0 multiplicity 1
 O         0.312832         0.257529         0.674539
 C        -0.609569         1.296556         0.536193
 C        -2.081205         1.018772         0.149014
 C        -1.790683         1.543699         1.588239
 C        -1.338769         3.125687         1.602737
 C        -0.510160         3.505640         2.894764
 C         0.996052         3.763942         2.496646
 O         1.024339         2.879389         1.312017
 C        -0.188866         2.756815         0.580349
 H         1.045582         0.586745         1.289200
 H        -2.526943         1.540118        -0.659055
 H        -2.385246        -0.001183         0.230274
 H        -2.239893         0.973208         2.356685
 H        -1.990980         3.956395         1.234488
 H        -1.075809         4.351371         3.451988
 H        -0.549141         2.524310         3.590618
 H         1.153487         4.947644         2.336006
 H         1.775216         3.480626         3.239283
 H        -0.174064         3.409908        -0.398065
