19
Iteration:  3651
 O         0.348443         0.257969         0.578326
 C        -0.592220         1.280508         0.643564
 C        -2.067208         1.095354         0.187577
 C        -1.811659         1.620147         1.553302
 C        -1.291838         3.082940         1.630035
 C        -0.587792         3.510278         2.906678
 C         0.830522         3.843677         2.441649
 O         1.097723         2.834696         1.364825
 C        -0.139801         2.644455         0.583114
 H         1.115628         0.585112         1.086128
 H        -2.602164         1.658102        -0.544854
 H        -2.506424         0.046851         0.079001
 H        -2.091613         0.916658         2.294013
 H        -1.947056         3.879738         1.336392
 H        -1.083529         4.301398         3.492097
 H        -0.584372         2.634072         3.578975
 H         1.021078         4.857208         1.993273
 H         1.642184         3.640906         3.256298
 H        -0.031539         3.162123        -0.378406
