19
Iteration:  2416
 O         0.307286         0.108499         0.500774
 C        -0.548695         1.172229         0.669587
 C        -2.006059         1.157009         0.357841
 C        -1.638155         1.598024         1.734657
 C        -1.308096         3.023671         1.588010
 C        -0.632120         3.673665         2.710354
 C         0.816642         3.320338         2.594641
 O         1.031332         3.359483         1.225534
 C        -0.138977         2.721053         0.553302
 H         0.982247         0.145408         1.190600
 H        -2.533481         1.892698        -0.263468
 H        -2.453121         0.000976         0.282401
 H        -2.323394         1.266220         2.625051
 H        -2.149131         3.572488         1.195920
 H        -0.574319         4.716684         2.290409
 H        -0.991205         3.698816         3.740722
 H         1.571658         3.962642         2.976287
 H         0.804253         2.299336         3.001753
 H        -0.131456         3.071268        -0.532377
