19
Iteration:  2857charge 0 multiplicity 1
 O         0.251233         0.157538         0.587224
 C        -0.563385         1.238612         0.670113
 C        -1.935340         1.087320         0.176771
 C        -1.829170         1.656661         1.578267
 C        -1.356256         3.045817         1.643268
 C        -0.534527         3.532371         2.918441
 C         0.873688         3.733079         2.450974
 O         1.087010         2.944265         1.272533
 C        -0.182548         2.765011         0.626968
 H         1.106318         0.598395         0.871564
 H        -2.514446         1.580723        -0.696940
 H        -2.169543         0.048590         0.056510
 H        -2.220157         1.218872         2.498494
 H        -2.115824         3.767682         1.318352
 H        -0.960219         4.397848         3.376042
 H        -0.613956         2.808619         3.628854
 H         1.081893         4.736775         2.198270
 H         1.590419         3.322484         3.155817
 H        -0.117602         3.277424        -0.306917
