19
Iteration:  3807
 O         0.340240         0.181484         0.422610
 C        -0.611057         1.267955         0.685164
 C        -2.025898         1.144589         0.239641
 C        -1.795383         1.616907         1.612129
 C        -1.360764         3.044578         1.680496
 C        -0.619728         3.528463         2.889852
 C         0.812108         3.848268         2.325700
 O         1.088172         2.816504         1.427632
 C        -0.093026         2.716617         0.692141
 H         1.169236         0.358133         0.948168
 H        -2.261847         1.913754        -0.540781
 H        -2.151107         0.084735         0.040352
 H        -2.285161         1.020156         2.458523
 H        -2.069590         3.792813         1.446082
 H        -0.901657         4.544633         3.143913
 H        -0.592532         2.773120         3.615466
 H         0.855163         4.690286         1.626831
 H         1.636605         3.733814         3.074207
 H         0.217068         3.200872        -0.280480
