19
Iteration:  4367charge 0 multiplicity 1
 O         0.311202         0.259928         0.546795
 C        -0.595709         1.289450         0.597173
 C        -1.968473         1.083454         0.183232
 C        -1.665457         1.600744         1.603441
 C        -1.299865         3.108920         1.662928
 C        -0.608788         3.497026         2.937632
 C         0.882058         3.743705         2.375557
 O         1.005025         2.828189         1.342045
 C        -0.204077         2.796908         0.602269
 H         0.649413        -0.179769         1.377089
 H        -2.446628         1.720327        -0.587242
 H        -2.217983        -0.006922         0.291340
 H        -1.898370         1.038108         2.494438
 H        -2.051966         3.884415         1.548290
 H        -1.096871         4.443527         3.357940
 H        -0.692189         2.650126         3.643067
 H         0.891977         4.818879         1.972878
 H         1.591973         3.512288         3.137773
 H        -0.114074         3.362772        -0.374939
