19
Iteration:  4867charge 0 multiplicity 1
 O         0.374133         0.256600         0.583855
 C        -0.644110         1.290046         0.649565
 C        -1.976299         1.143582         0.172606
 C        -1.780563         1.581586         1.597448
 C        -1.388726         3.035852         1.650462
 C        -0.550587         3.476934         2.888145
 C         0.942041         3.666221         2.495279
 O         1.043460         2.961562         1.238841
 C        -0.232434         2.709710         0.635143
 H         1.215963         0.637834         0.952900
 H        -2.369388         1.801647        -0.521448
 H        -2.439393         0.133790         0.237375
 H        -2.153180         1.037749         2.433837
 H        -2.122646         3.771316         1.320385
 H        -0.927653         4.394891         3.382620
 H        -0.666963         2.728220         3.616637
 H         1.118177         4.679319         2.110819
 H         1.662367         3.439111         3.295545
 H        -0.280923         3.132810        -0.424506
