19
Iteration:  3681charge 0 multiplicity 1
 O         0.269417         0.258255         0.653285
 C        -0.572104         1.328213         0.608012
 C        -1.984807         1.051160         0.197862
 C        -1.721519         1.608248         1.556204
 C        -1.304098         3.147672         1.636400
 C        -0.552824         3.418920         2.883089
 C         0.820580         3.777830         2.455861
 O         1.070722         2.773536         1.334233
 C        -0.194764         2.786069         0.501797
 H         0.957467         0.519592         1.334218
 H        -2.266503         1.817920        -0.469274
 H        -2.267047        -0.012155         0.209282
 H        -1.986021         0.968519         2.395977
 H        -2.101618         3.936779         1.465941
 H        -1.135877         4.169409         3.458145
 H        -0.818562         2.706495         3.694156
 H         0.963121         4.786918         1.980374
 H         1.671357         3.799355         3.123430
 H        -0.194041         3.469972        -0.432237
