19
Iteration:  4835
 O         0.302581         0.249258         0.621411
 C        -0.568692         1.335893         0.487260
 C        -2.043255         1.098818         0.182112
 C        -1.596765         1.558675         1.607406
 C        -1.343082         3.041308         1.653516
 C        -0.595993         3.522937         2.934972
 C         0.875378         3.698559         2.494742
 O         1.032345         2.824728         1.268352
 C        -0.246820         2.819389         0.600209
 H         0.867887         0.651389         1.293311
 H        -2.546089         1.749174        -0.468827
 H        -2.413439         0.039946         0.220301
 H        -1.703794         0.869802         2.428063
 H        -2.156758         3.781470         1.406918
 H        -0.886807         4.506890         3.381713
 H        -0.678718         2.741150         3.620917
 H         1.066295         4.654044         2.060770
 H         1.743417         3.582855         3.263533
 H        -0.271462         3.423134        -0.336709
