19
Iteration:  3084
 O         0.307398         0.208739         0.608729
 C        -0.579622         1.267631         0.618219
 C        -1.973525         1.103707         0.076094
 C        -1.844772         1.581920         1.581946
 C        -1.381410         3.039703         1.675863
 C        -0.466802         3.552052         2.894757
 C         0.909485         3.866922         2.422124
 O         1.045232         2.823308         1.331120
 C        -0.234571         2.721819         0.680019
 H         1.052766         0.529471         1.107954
 H        -2.408455         1.637965        -0.735725
 H        -2.313766         0.100600         0.066266
 H        -2.094385         1.033379         2.434833
 H        -2.022461         3.874392         1.340382
 H        -0.928671         4.382886         3.442368
 H        -0.249605         2.820390         3.791609
 H         1.050626         4.844955         1.977241
 H         1.596997         3.490731         3.125661
 H        -0.324026         3.257600        -0.342230
