19
Iteration:  1225charge 0 multiplicity 1
 O         0.310543         0.125673         0.602358
 C        -0.545487         1.298267         0.715632
 C        -1.975887         1.068204         0.297054
 C        -1.626019         1.591256         1.683343
 C        -1.403894         3.149383         1.573960
 C        -0.614255         3.759113         2.710237
 C         0.857376         3.174002         2.572449
 O         1.024375         3.252759         1.183432
 C        -0.191905         2.767271         0.566190
 H         0.977877         0.019069         1.348655
 H        -2.535787         1.728071        -0.340604
 H        -2.099221        -0.026974         0.157922
 H        -1.972240         0.959207         2.536202
 H        -2.297536         3.720121         1.140852
 H        -0.586595         4.864526         2.442162
 H        -0.994136         3.674722         3.737595
 H         1.422714         3.947411         3.089103
 H         1.047006         2.202229         3.018853
 H        -0.169695         3.273417        -0.500835
