19
Iteration:  2925charge 0 multiplicity 1
 O         0.169719         0.150207         0.493728
 C        -0.603062         1.318607         0.532235
 C        -1.994401         1.030773         0.114462
 C        -1.698416         1.602116         1.638977
 C        -1.291590         3.032415         1.675718
 C        -0.557515         3.640612         2.983270
 C         0.779519         3.871604         2.398189
 O         1.088741         2.835409         1.431210
 C        -0.063382         2.691782         0.645814
 H         0.990832         0.264871         1.039512
 H        -2.533836         1.647564        -0.662014
 H        -2.312531        -0.064248         0.004945
 H        -1.985304         1.146736         2.522533
 H        -2.079442         3.736044         1.312261
 H        -0.787797         4.534118         3.610527
 H        -0.488599         2.949468         3.761973
 H         0.652653         4.661909         1.709403
 H         1.719282         3.916803         2.953956
 H        -0.017946         3.270779        -0.280432
