19
Iteration:  2878charge 0 multiplicity 1
 O         0.284828         0.162963         0.514796
 C        -0.591850         1.188011         0.714860
 C        -1.993834         1.191172         0.224551
 C        -1.703326         1.577342         1.677625
 C        -1.281889         3.122980         1.551360
 C        -0.665059         3.499974         2.970158
 C         0.819722         3.766224         2.442734
 O         1.140965         2.975884         1.245080
 C        -0.171023         2.652975         0.625083
 H         1.007053         0.287548         1.105677
 H        -2.285070         2.071769        -0.508230
 H        -2.588930         0.336535        -0.036702
 H        -2.356380         0.917895         2.329364
 H        -1.969146         3.879662         1.173686
 H        -0.998522         4.442369         3.342306
 H        -0.794130         2.823678         3.753693
 H         0.932719         4.720134         2.066955
 H         1.577976         3.476739         3.153172
 H        -0.136759         2.930347        -0.381401
