19
Iteration:   823charge 0 multiplicity 1
 O         0.439203         0.275436         0.503074
 C        -0.666683         1.174853         0.637583
 C        -2.127096         1.064302         0.362239
 C        -1.731576         1.647721         1.673906
 C        -1.329331         3.108655         1.487465
 C        -0.600076         3.814116         2.786652
 C         0.829976         3.421586         2.641733
 O         1.098464         2.879434         1.299084
 C        -0.133291         2.722282         0.521783
 H         1.142835         0.849139         0.650403
 H        -2.663833         1.571341        -0.416236
 H        -2.430179         0.038505         0.479324
 H        -2.233391         1.376292         2.573439
 H        -2.123609         3.793463         1.174405
 H        -0.797162         4.911692         2.772428
 H        -1.104377         3.469763         3.715019
 H         1.520382         4.332231         2.719811
 H         1.208193         2.642313         3.307816
 H         0.129635         3.185743        -0.516871
