19
Iteration:   721
 O         0.343026         0.243359         0.669965
 C        -0.567213         1.356098         0.739048
 C        -1.941548         1.104795         0.352624
 C        -1.729801         1.694391         1.778096
 C        -1.371693         3.156656         1.476402
 C        -0.661044         3.628201         2.737909
 C         0.813885         3.154449         2.526181
 O         1.086102         3.060750         1.139889
 C        -0.200361         2.785372         0.517699
 H         1.268449         0.633117         0.873867
 H        -2.343552         1.869124        -0.497211
 H        -2.091229         0.034518         0.139321
 H        -2.037224         1.305061         2.759490
 H        -2.082883         3.755411         0.865608
 H        -0.788730         4.779303         2.950991
 H        -1.009061         3.019015         3.583737
 H         1.542130         3.847836         2.925694
 H         0.933966         2.162183         3.011571
 H        -0.215714         3.272463        -0.473478
