19
Iteration:  1301
 O         0.479998         0.433631         0.571688
 C        -0.588855         1.333258         0.750788
 C        -2.005844         0.971098         0.364990
 C        -1.842691         1.686549         1.731787
 C        -1.371884         3.188361         1.444043
 C        -0.653645         3.685641         2.732667
 C         0.785321         3.162148         2.551182
 O         1.130352         2.975437         1.130986
 C        -0.168328         2.706555         0.627102
 H         1.337778         0.807181         1.021411
 H        -2.533285         1.530437        -0.376735
 H        -2.205282        -0.039243         0.535340
 H        -2.258198         1.324958         2.664861
 H        -2.178671         3.940538         1.035538
 H        -0.628990         4.830967         2.823831
 H        -1.136679         3.250332         3.631126
 H         1.480883         3.864313         3.031559
 H         0.900988         2.195296         3.055619
 H        -0.236984         3.051134        -0.470611
