19
Iteration:  1815charge 0 multiplicity 1
 O         0.222441         0.190110         0.559895
 C        -0.480927         1.338276         0.626761
 C        -1.929132         0.955684         0.448861
 C        -1.596494         1.595244         1.715492
 C        -1.322442         3.102058         1.539275
 C        -0.674754         3.834737         2.677866
 C         0.739411         3.178320         2.664462
 O         1.084346         3.102387         1.151280
 C        -0.233837         2.879990         0.539582
 H         1.185233         0.350945         0.886356
 H        -2.483566         1.601961        -0.336070
 H        -1.969240        -0.063479         0.255471
 H        -1.769812         1.179411         2.655340
 H        -2.088496         3.763762         1.187752
 H        -0.716012         4.853708         2.549785
 H        -1.094036         3.572862         3.589766
 H         1.595697         3.771467         3.049223
 H         0.762282         2.201734         3.210479
 H        -0.205746         3.578171        -0.347144
