19
Iteration:  2821
 O         0.349884         0.339321         0.694777
 C        -0.680750         1.284649         0.588814
 C        -2.053023         1.075164         0.169095
 C        -1.737892         1.683500         1.551998
 C        -1.286107         3.068345         1.593638
 C        -0.577584         3.433893         2.953128
 C         0.792748         3.676031         2.361198
 O         1.122155         2.815376         1.294222
 C        -0.182460         2.765590         0.596105
 H         1.048743         0.719370         1.290684
 H        -2.493375         1.824373        -0.488900
 H        -2.324479        -0.040564         0.259858
 H        -1.909385         1.045074         2.531299
 H        -2.098979         3.785922         1.452000
 H        -0.869023         4.371749         3.392819
 H        -0.433866         2.668853         3.710741
 H         1.012763         4.643175         2.039692
 H         1.501784         3.530253         3.206315
 H        -0.137277         3.223964        -0.357087
