19
Iteration:  4088
 O         0.356228         0.190061         0.490900
 C        -0.589321         1.224634         0.589774
 C        -2.013172         1.118450         0.185186
 C        -1.694108         1.671717         1.628828
 C        -1.306894         3.069797         1.649986
 C        -0.607706         3.501911         3.004336
 C         0.786559         3.852344         2.408172
 O         1.059471         2.809127         1.344633
 C        -0.135275         2.707469         0.599456
 H         0.656314         0.172107         1.396584
 H        -2.382409         1.750884        -0.579445
 H        -2.669560         0.228812         0.253434
 H        -2.191015         1.314397         2.509743
 H        -2.077237         3.661782         1.237525
 H        -0.927224         4.501154         3.320710
 H        -0.520476         2.693336         3.812141
 H         0.668232         4.820440         1.764466
 H         1.702776         3.870949         3.100601
 H        -0.036180         3.330298        -0.342364
