19
Iteration:  2868charge 0 multiplicity 1
 O         0.290874         0.141957         0.545360
 C        -0.629526         1.277230         0.741770
 C        -1.982222         1.129289         0.142460
 C        -1.771423         1.616395         1.648571
 C        -1.301832         3.129744         1.666332
 C        -0.668676         3.505127         2.922331
 C         0.873267         3.727953         2.460990
 O         1.106405         2.939582         1.206827
 C        -0.128238         2.689912         0.628886
 H         1.170387         0.290762         0.857657
 H        -2.173462         1.835311        -0.765338
 H        -2.276344         0.121562         0.234057
 H        -2.135565         1.021134         2.482340
 H        -1.982610         3.896354         1.290127
 H        -1.058423         4.451898         3.230097
 H        -0.749690         2.805960         3.635067
 H         0.898834         4.746648         2.249712
 H         1.668202         3.591803         3.177381
 H        -0.264992         3.117676        -0.329719
