19
Iteration:  3185charge 0 multiplicity 1
 O         0.268175         0.082309         0.490301
 C        -0.581009         1.195396         0.663431
 C        -2.015884         1.162536         0.168067
 C        -1.724053         1.521610         1.603107
 C        -1.293533         3.039178         1.633053
 C        -0.568137         3.595465         2.873476
 C         0.832156         3.897453         2.434531
 O         1.105161         2.917329         1.344154
 C        -0.137983         2.722024         0.682505
 H         0.777717         0.263917         1.321309
 H        -2.480375         1.911211        -0.509206
 H        -2.423713         0.187307        -0.190417
 H        -2.300188         1.018060         2.446189
 H        -2.172688         3.632004         1.337617
 H        -1.087918         4.512523         3.345109
 H        -0.531925         2.969859         3.826062
 H         0.927418         4.993025         2.125218
 H         1.553547         3.773151         3.220356
 H        -0.217874         3.226826        -0.341546
