19
Iteration:  1311charge 0 multiplicity 1
 O         0.414298         0.379125         0.590580
 C        -0.561869         1.325333         0.749496
 C        -2.057854         0.957969         0.391891
 C        -1.788205         1.684658         1.646186
 C        -1.404705         3.146123         1.533114
 C        -0.623286         3.699053         2.685587
 C         0.839381         3.155672         2.645763
 O         1.110202         3.052154         1.167404
 C        -0.155698         2.788896         0.509291
 H         1.229429         0.697788         1.111800
 H        -2.572531         1.221995        -0.494666
 H        -2.272952        -0.095342         0.463258
 H        -2.098110         1.158266         2.573913
 H        -2.302143         3.709400         1.066802
 H        -0.772410         4.833082         2.532852
 H        -1.026701         3.481888         3.680204
 H         1.675395         3.755345         3.091077
 H         0.889856         2.112524         3.016246
 H         0.038044         3.241313        -0.476175
