19
Iteration:  3940
 O         0.283756         0.207107         0.597956
 C        -0.563146         1.281878         0.607864
 C        -1.989291         1.155508         0.181591
 C        -1.779523         1.493803         1.676269
 C        -1.360165         3.053780         1.611456
 C        -0.591632         3.557469         2.885387
 C         0.955708         3.824207         2.400806
 O         1.027347         2.813827         1.341490
 C        -0.192763         2.731845         0.610801
 H         1.125603         0.662586         0.897382
 H        -2.273246         2.006368        -0.529809
 H        -2.286137         0.135627        -0.137190
 H        -2.097600         0.855196         2.458490
 H        -2.013429         3.871486         1.390455
 H        -1.073131         4.388610         3.438326
 H        -0.650736         2.794604         3.617131
 H         1.049523         4.926998         1.993501
 H         1.764375         3.573774         3.137944
 H        -0.127670         3.353717        -0.351200
