19
Iteration:  4374charge 0 multiplicity 1
 O         0.278966         0.297828         0.533760
 C        -0.601279         1.318879         0.635068
 C        -1.951339         1.095756         0.154330
 C        -1.651134         1.563090         1.590793
 C        -1.337127         3.053903         1.674008
 C        -0.604717         3.528065         2.920660
 C         0.906434         3.743210         2.368688
 O         0.992532         2.825415         1.346483
 C        -0.173915         2.767234         0.615025
 H         0.705133         0.107002         1.414075
 H        -2.579263         1.606171        -0.494656
 H        -2.260674         0.131059         0.432624
 H        -2.040068         1.021057         2.446615
 H        -2.147678         3.679612         1.295101
 H        -1.060771         4.456440         3.351575
 H        -0.568667         2.670684         3.618379
 H         1.069772         4.798209         2.124358
 H         1.678514         3.560175         3.173779
 H        -0.033882         3.252417        -0.321139
