19
Iteration:  3736charge 0 multiplicity 1
 O         0.305647         0.159312         0.540334
 C        -0.593921         1.242065         0.709572
 C        -1.998979         1.171333         0.141362
 C        -1.789268         1.604180         1.632368
 C        -1.335678         3.084148         1.659161
 C        -0.591835         3.545680         2.967411
 C         0.839323         3.742242         2.438183
 O         1.048173         2.988700         1.259981
 C        -0.084995         2.618749         0.626317
 H         1.135166         0.249812         1.069920
 H        -2.097632         1.875798        -0.660020
 H        -2.209368         0.085041        -0.023223
 H        -2.285626         1.175359         2.464481
 H        -2.095851         3.794702         1.219022
 H        -1.014470         4.504633         3.261876
 H        -0.710785         2.662207         3.642219
 H         0.927284         4.800240         2.079879
 H         1.614596         3.420734         3.097094
 H        -0.112216         3.056860        -0.413344
