19
Iteration:  4833charge 0 multiplicity 1
 O         0.292673         0.259513         0.609430
 C        -0.544098         1.336163         0.497479
 C        -2.050018         1.092636         0.177644
 C        -1.613009         1.565128         1.607343
 C        -1.353245         3.033896         1.649343
 C        -0.604418         3.519337         2.920039
 C         0.890626         3.698334         2.480944
 O         1.041009         2.830907         1.294285
 C        -0.242627         2.813961         0.603324
 H         0.864406         0.660146         1.298100
 H        -2.629950         1.723551        -0.442089
 H        -2.428767         0.065778         0.226213
 H        -1.684184         0.840491         2.511300
 H        -2.122347         3.732157         1.451565
 H        -0.869000         4.456442         3.348622
 H        -0.675767         2.732774         3.664799
 H         1.094236         4.759263         2.086558
 H         1.700447         3.554614         3.169226
 H        -0.237885         3.405913        -0.378599
