19
Iteration:  1163
 O         0.278978         0.239738         0.651821
 C        -0.558679         1.345773         0.609272
 C        -2.024316         1.005461         0.293234
 C        -1.682012         1.586446         1.675991
 C        -1.357653         3.042276         1.572055
 C        -0.616017         3.747830         2.643295
 C         0.868715         3.339238         2.660770
 O         1.108091         3.042688         1.246982
 C        -0.223722         2.815774         0.523685
 H         1.210219         0.635226         0.875766
 H        -2.853908         1.521123        -0.354832
 H        -2.125452        -0.095698         0.305676
 H        -1.870174         0.898066         2.463420
 H        -2.066931         3.774297         1.301227
 H        -0.538551         4.785464         2.416010
 H        -1.013421         3.572983         3.668061
 H         1.573439         4.139683         2.958757
 H         1.149522         2.395205         3.233848
 H        -0.384674         3.362067        -0.356929
