19
Iteration:  3686charge 0 multiplicity 1
 O         0.264798         0.261494         0.655381
 C        -0.615169         1.309777         0.645898
 C        -1.950981         1.084572         0.172935
 C        -1.752771         1.581359         1.520611
 C        -1.297799         3.131323         1.650776
 C        -0.579108         3.444319         2.959199
 C         0.801710         3.752397         2.412916
 O         1.093086         2.811010         1.315415
 C        -0.159068         2.769354         0.504487
 H         0.983052         0.570069         1.216443
 H        -2.465863         1.850175        -0.518208
 H        -2.188534         0.047139         0.324173
 H        -1.819766         1.013643         2.461500
 H        -2.050656         3.857465         1.445386
 H        -1.079791         4.382062         3.291630
 H        -0.671631         2.664420         3.729526
 H         0.877195         4.750996         1.979286
 H         1.647411         3.633952         3.207643
 H        -0.170661         3.283010        -0.440770
