19
Iteration:  2414
 O         0.304007         0.103493         0.501445
 C        -0.557988         1.168470         0.654870
 C        -2.009410         1.151652         0.363243
 C        -1.632618         1.596051         1.741307
 C        -1.314503         3.017995         1.591036
 C        -0.633831         3.679402         2.719809
 C         0.802370         3.313103         2.594064
 O         1.034716         3.361227         1.211914
 C        -0.112139         2.725626         0.565782
 H         1.057803         0.124190         1.189521
 H        -2.588785         1.929838        -0.275269
 H        -2.420736         0.041337         0.279828
 H        -2.326128         1.377334         2.589924
 H        -2.153074         3.558172         1.141913
 H        -0.606533         4.742459         2.397198
 H        -1.009993         3.649220         3.691572
 H         1.585959         4.012598         2.974424
 H         0.835134         2.341666         3.036879
 H        -0.141570         3.064612        -0.571969
