19
Iteration:  2939charge 0 multiplicity 1
 O         0.254804         0.165841         0.445622
 C        -0.623387         1.237335         0.598821
 C        -2.000324         1.143933         0.167802
 C        -1.743552         1.606814         1.629434
 C        -1.256449         3.103317         1.708481
 C        -0.568354         3.569828         2.973498
 C         0.799252         3.904673         2.278799
 O         1.064765         2.734198         1.473715
 C        -0.107764         2.714303         0.639414
 H         0.983971         0.370924         1.032186
 H        -2.444667         1.646122        -0.622982
 H        -2.128914         0.044190         0.283832
 H        -2.045181         0.864533         2.458097
 H        -1.979049         3.875369         1.356369
 H        -1.201247         4.463605         3.122422
 H        -0.514118         2.779205         3.842413
 H         0.669628         4.909874         1.779338
 H         1.560854         4.082323         3.067030
 H         0.140777         3.286538        -0.347504
