19
Iteration:  3305
 O         0.205365         0.125931         0.609693
 C        -0.626816         1.259736         0.545035
 C        -2.051835         1.131474         0.187009
 C        -1.655356         1.531565         1.603088
 C        -1.278636         2.946767         1.587272
 C        -0.578080         3.597653         2.847983
 C         0.832067         3.801497         2.474255
 O         1.116755         2.958224         1.372573
 C        -0.140488         2.758111         0.614285
 H         0.983630         0.532032         1.065904
 H        -2.545858         1.956979        -0.383403
 H        -2.512844         0.235513         0.063041
 H        -1.672997         0.837791         2.457069
 H        -2.119302         3.655821         1.311257
 H        -1.088190         4.583400         3.180942
 H        -0.744045         2.879514         3.744083
 H         1.166050         4.832750         2.291584
 H         1.595506         3.542324         3.129514
 H        -0.077454         3.363557        -0.251358
