19
Iteration:  4580
 O         0.264400         0.155642         0.639977
 C        -0.589148         1.242617         0.666661
 C        -1.958579         1.181106         0.177790
 C        -1.766563         1.611502         1.603910
 C        -1.346808         3.021900         1.654925
 C        -0.606549         3.395931         2.974188
 C         0.821860         3.764249         2.480327
 O         1.109269         3.009188         1.203996
 C        -0.113567         2.757280         0.569404
 H         1.039596         0.492221         0.110357
 H        -2.322026         1.848843        -0.581434
 H        -2.376337         0.133482         0.121127
 H        -2.154753         1.138972         2.538643
 H        -2.093502         3.818730         1.394170
 H        -1.090107         4.170461         3.429783
 H        -0.601200         2.487338         3.554048
 H         0.857343         4.875612         2.228386
 H         1.660939         3.573266         3.197832
 H        -0.036258         3.222401        -0.385937
