19
Iteration:  4332
 O         0.245877         0.200009         0.530868
 C        -0.579093         1.207905         0.682719
 C        -2.102928         1.180333         0.188224
 C        -1.724730         1.574040         1.604096
 C        -1.258854         3.027198         1.636107
 C        -0.576835         3.409762         2.864740
 C         0.819762         3.877022         2.417445
 O         1.124673         3.006172         1.341924
 C        -0.126667         2.678998         0.634121
 H         0.918333         0.194192         1.282401
 H        -2.396340         1.755711        -0.628108
 H        -2.410441         0.181065        -0.014100
 H        -2.164029         0.923017         2.356822
 H        -2.018568         3.751394         1.466507
 H        -1.265208         4.176074         3.424030
 H        -0.408076         2.546946         3.551877
 H         1.041428         4.946718         2.123728
 H         1.665396         3.713845         3.131789
 H        -0.148575         3.146275        -0.356736
