19
Iteration:  1096
 O         0.384358         0.307218         0.494937
 C        -0.569334         1.299086         0.677873
 C        -2.052055         0.946643         0.440203
 C        -1.771103         1.617650         1.741045
 C        -1.355534         3.148072         1.502377
 C        -0.596045         3.821354         2.667258
 C         0.757436         3.152314         2.656393
 O         1.170930         3.109988         1.242126
 C        -0.148654         2.753295         0.512833
 H         1.207506         0.733528         0.611859
 H        -2.660336         1.496180        -0.409036
 H        -2.257954        -0.234808         0.468914
 H        -2.076264         1.269870         2.792534
 H        -2.140652         3.795097         1.086075
 H        -0.558821         4.893400         2.386324
 H        -1.312461         3.651375         3.554851
 H         1.472510         3.642195         3.359824
 H         0.470206         2.137187         3.075811
 H        -0.046521         3.185459        -0.466541
