19
Iteration:  3173charge 0 multiplicity 1
 O         0.226635         0.099192         0.509247
 C        -0.587387         1.219158         0.599062
 C        -1.992752         1.155174         0.125005
 C        -1.815429         1.572404         1.637363
 C        -1.287673         2.942081         1.675210
 C        -0.611522         3.603244         3.027526
 C         0.833365         3.890562         2.397889
 O         1.133498         3.000371         1.333934
 C        -0.085963         2.642007         0.640143
 H         1.049357         0.069687         0.973577
 H        -2.389862         1.872035        -0.541987
 H        -2.242583         0.027383         0.181528
 H        -2.383485         1.125396         2.500469
 H        -1.850236         3.787367         1.191636
 H        -1.145869         4.610229         3.071561
 H        -0.659848         2.832001         3.919003
 H         0.911276         4.940726         1.891832
 H         1.664630         3.756633         3.080689
 H         0.002247         3.179532        -0.350776
