19
Iteration:  1853charge 0 multiplicity 1
 O         0.463163         0.247512         0.588758
 C        -0.602857         1.197011         0.638082
 C        -2.111945         1.134485         0.276460
 C        -1.799552         1.555067         1.712526
 C        -1.291552         3.039024         1.541468
 C        -0.599291         3.734996         2.811302
 C         0.878732         3.456023         2.581597
 O         1.058703         3.061408         1.169565
 C        -0.184534         2.681962         0.605170
 H         1.304741         0.664916         1.022509
 H        -2.287607         1.747838        -0.595006
 H        -2.633892         0.120051         0.165708
 H        -2.278606         1.208341         2.692687
 H        -2.059503         3.740849         1.093783
 H        -0.809393         4.900388         2.774191
 H        -1.209716         3.330161         3.718508
 H         1.646247         4.204196         2.804507
 H         1.081768         2.519591         3.150686
 H        -0.415723         3.135213        -0.330540
