19
Iteration:  2356
 O         0.428797         0.321273         0.587103
 C        -0.611670         1.254110         0.585372
 C        -2.099907         1.027839         0.288476
 C        -1.733764         1.555473         1.658259
 C        -1.340545         3.090102         1.595517
 C        -0.614549         3.764048         2.801194
 C         0.901329         3.434886         2.557957
 O         1.089851         2.911113         1.229726
 C        -0.241636         2.759518         0.579175
 H         1.038002         0.729125         1.184084
 H        -2.697502         1.701944        -0.456398
 H        -2.407557         0.039052         0.304296
 H        -1.790814         0.983258         2.556794
 H        -2.062651         3.850084         1.147954
 H        -0.860727         4.803241         2.675374
 H        -1.058577         3.382876         3.750072
 H         1.673744         4.250961         2.741673
 H         1.173755         2.695574         3.308867
 H        -0.263868         3.308729        -0.444951
