19
Iteration:  4559
 O         0.177326         0.133692         0.675161
 C        -0.552044         1.305774         0.625850
 C        -2.033346         1.155334         0.131962
 C        -1.630933         1.505664         1.563483
 C        -1.298173         3.076260         1.650301
 C        -0.562288         3.411131         2.918749
 C         0.793960         3.823640         2.438603
 O         1.095130         2.998709         1.328170
 C        -0.166106         2.753859         0.644356
 H         0.913736         0.227771         0.066697
 H        -2.539345         1.901139        -0.386258
 H        -2.180368         0.126570        -0.284016
 H        -1.947328         0.752974         2.379972
 H        -2.097028         3.778645         1.252250
 H        -0.970331         4.240277         3.434440
 H        -0.427392         2.569278         3.562112
 H         0.867279         4.831032         2.015745
 H         1.714450         3.793817         3.118978
 H        -0.159223         3.374444        -0.248583
