19
Iteration:  4561charge 0 multiplicity 1
 O         0.183978         0.130029         0.672137
 C        -0.549551         1.322883         0.637044
 C        -2.032662         1.151777         0.109609
 C        -1.629873         1.508462         1.595076
 C        -1.293023         3.093444         1.624851
 C        -0.557907         3.391145         2.915961
 C         0.783407         3.801571         2.429584
 O         1.104370         3.010243         1.332359
 C        -0.179107         2.753617         0.650859
 H         0.969678         0.196306         0.069699
 H        -2.599271         1.893155        -0.348057
 H        -2.170616         0.139902        -0.270738
 H        -2.033847         0.740793         2.407389
 H        -2.106815         3.749830         1.209855
 H        -0.932828         4.313244         3.523731
 H        -0.473316         2.593451         3.642355
 H         0.848242         4.801725         2.014810
 H         1.744063         3.777031         3.091474
 H        -0.206474         3.369977        -0.324720
