19
Iteration:  2310
 O         0.426870         0.279983         0.504248
 C        -0.548361         1.294379         0.649039
 C        -1.983362         1.009618         0.337465
 C        -1.709606         1.651955         1.722958
 C        -1.415447         3.130171         1.622132
 C        -0.618769         3.817656         2.703696
 C         0.798818         3.281918         2.581595
 O         1.031506         2.929921         1.193858
 C        -0.213100         2.795490         0.588251
 H         1.199515         0.563395         0.984184
 H        -2.458022         1.633975        -0.338588
 H        -2.202708        -0.142388         0.197874
 H        -1.900429         1.154978         2.741215
 H        -2.382071         3.554560         1.240580
 H        -0.560165         4.899324         2.522180
 H        -0.831383         3.611612         3.828367
 H         1.563071         3.973407         2.937654
 H         0.902462         2.382180         3.248274
 H        -0.236411         3.336148        -0.368000
