19
Iteration:  4097charge 0 multiplicity 1
 O         0.387368         0.153288         0.478319
 C        -0.644017         1.219355         0.610054
 C        -2.057014         1.125093         0.259583
 C        -1.747262         1.637341         1.612340
 C        -1.318635         3.120603         1.634657
 C        -0.585700         3.564250         2.955319
 C         0.752427         3.823947         2.406409
 O         1.101405         2.789899         1.365175
 C        -0.118127         2.739672         0.567511
 H         1.019519         0.347939         1.180440
 H        -2.289405         1.888944        -0.522355
 H        -2.441027         0.072874         0.038713
 H        -2.131031         0.993485         2.436574
 H        -2.086686         3.836952         1.447126
 H        -1.017568         4.370904         3.532125
 H        -0.429113         2.741442         3.681405
 H         0.800423         4.850938         2.041505
 H         1.476434         3.897849         3.199365
 H         0.049404         3.231556        -0.451157
