19
Iteration:  2395charge 0 multiplicity 1
 O         0.240854         0.064175         0.498943
 C        -0.508027         1.250467         0.724720
 C        -1.992424         1.093544         0.359942
 C        -1.670693         1.585930         1.721287
 C        -1.295827         3.142897         1.512925
 C        -0.716994         3.743376         2.806368
 C         0.836022         3.380633         2.615318
 O         1.088003         3.241277         1.158024
 C        -0.162696         2.731906         0.549776
 H         1.165767         0.295747         0.868595
 H        -2.417311         1.728706        -0.370820
 H        -2.353516        -0.052569         0.271378
 H        -1.716738         0.840088         2.602907
 H        -2.105682         3.711410         1.077061
 H        -0.863766         4.843295         2.960982
 H        -1.092182         3.130744         3.675273
 H         1.531038         4.092177         2.988407
 H         1.008643         2.335282         3.012280
 H        -0.141727         3.150429        -0.454548
