19
Iteration:  2772
 O         0.270226         0.187592         0.547455
 C        -0.668734         1.181124         0.602089
 C        -2.020902         1.085234         0.133466
 C        -1.821136         1.562010         1.582806
 C        -1.282768         3.070920         1.694758
 C        -0.541491         3.545793         2.929264
 C         0.868773         3.859660         2.456165
 O         1.104477         2.948290         1.316075
 C        -0.104300         2.678534         0.660345
 H         1.013658         0.347403         1.199335
 H        -2.363016         1.753236        -0.634353
 H        -2.419866         0.117604         0.202544
 H        -2.391399         0.961977         2.208490
 H        -1.918161         3.895210         1.283378
 H        -0.912510         4.499441         3.440339
 H        -0.570257         2.638261         3.674835
 H         0.876420         4.943484         2.059032
 H         1.742545         3.819896         3.077154
 H        -0.056632         3.140731        -0.400186
