19
Iteration:  3100
 O         0.282402         0.231329         0.629590
 C        -0.620690         1.280459         0.599871
 C        -2.048531         1.086601         0.130387
 C        -1.779190         1.543058         1.537713
 C        -1.294927         3.054181         1.710618
 C        -0.584876         3.510857         3.024178
 C         0.901127         3.786707         2.313644
 O         1.124352         2.873244         1.327256
 C        -0.150386         2.759931         0.615792
 H         0.759121         0.371403         1.471211
 H        -2.383324         1.888348        -0.610755
 H        -2.300112        -0.036469         0.079311
 H        -2.357865         0.856565         2.263004
 H        -2.145486         3.684192         1.454226
 H        -1.008463         4.478145         3.348263
 H        -0.703337         2.712286         3.650277
 H         0.796858         4.790894         1.772638
 H         1.838548         3.980427         2.923654
 H         0.078469         3.429463        -0.212859
