19
Iteration:  3999
 O         0.246310         0.145646         0.548231
 C        -0.626292         1.234618         0.721340
 C        -2.047108         1.163760         0.198179
 C        -1.756718         1.563449         1.560642
 C        -1.345140         3.104210         1.632643
 C        -0.520318         3.432150         2.825563
 C         0.816726         3.869297         2.400539
 O         1.142294         2.963828         1.336637
 C        -0.091859         2.706986         0.704972
 H         1.059105         0.306971         1.028230
 H        -2.292446         1.636051        -0.756031
 H        -2.355228         0.110477         0.199197
 H        -2.285799         0.987692         2.393109
 H        -2.032271         3.848993         1.297184
 H        -0.975192         4.189152         3.440813
 H        -0.471721         2.393946         3.287802
 H         0.893504         4.968340         2.047962
 H         1.431332         3.860426         3.308777
 H        -0.189344         3.147719        -0.296266
