19
Iteration:  3828
 O         0.324443         0.243348         0.410227
 C        -0.604286         1.136708         0.707304
 C        -1.957402         1.188759         0.135593
 C        -1.781924         1.546165         1.666946
 C        -1.295462         3.017766         1.625998
 C        -0.594253         3.670359         2.891639
 C         0.855201         3.926027         2.435862
 O         1.041901         2.749128         1.399175
 C        -0.211197         2.659841         0.688814
 H         1.100116         0.451876         0.943753
 H        -2.132218         1.949125        -0.583373
 H        -2.413564         0.241886         0.129453
 H        -2.176283         0.961812         2.569014
 H        -2.014717         3.675216         1.173573
 H        -1.003853         4.542428         3.401573
 H        -0.423956         2.851827         3.589752
 H         0.915986         4.800465         1.746445
 H         1.688008         3.701235         3.179135
 H        -0.182446         3.283156        -0.290905
