19
Iteration:  3125charge 0 multiplicity 1
 O         0.256133         0.148162         0.592274
 C        -0.609779         1.254746         0.610479
 C        -2.004850         1.211563         0.221631
 C        -1.732615         1.605566         1.601036
 C        -1.275743         3.035063         1.583014
 C        -0.546014         3.421999         2.891127
 C         0.769089         3.934888         2.398284
 O         1.061028         2.883836         1.349527
 C        -0.100735         2.682688         0.608384
 H         0.790739         0.313602         1.432230
 H        -2.386331         2.043296        -0.371595
 H        -2.364908         0.264475         0.165332
 H        -1.860722         0.911190         2.409655
 H        -2.138018         3.668882         1.261833
 H        -1.105552         4.096339         3.497341
 H        -0.359607         2.431217         3.378556
 H         0.822023         4.918198         1.848220
 H         1.585583         3.892687         3.211383
 H         0.097873         3.281208        -0.237716
