19
Iteration:  1824charge 0 multiplicity 1
 O         0.256980         0.200944         0.549935
 C        -0.535375         1.352268         0.660625
 C        -1.935103         1.010282         0.339491
 C        -1.591812         1.610463         1.767071
 C        -1.428362         3.114123         1.542432
 C        -0.653462         3.760293         2.727885
 C         0.804617         3.269683         2.598781
 O         1.052188         3.067396         1.202982
 C        -0.172587         2.804786         0.533501
 H         1.185479         0.261585         0.970268
 H        -2.323251         1.525071        -0.568185
 H        -2.061659         0.008368         0.467296
 H        -1.762523         1.204893         2.689783
 H        -2.319949         3.722979         1.237318
 H        -0.620541         4.832892         2.605818
 H        -1.170712         3.589571         3.627696
 H         1.650254         3.957660         2.927016
 H         0.932212         2.314304         3.078206
 H        -0.165036         3.328780        -0.490277
