19
Iteration:  1148charge 0 multiplicity 1
 O         0.376677         0.302944         0.665746
 C        -0.641311         1.276594         0.510964
 C        -2.058482         1.011292         0.283408
 C        -1.603930         1.554383         1.612129
 C        -1.343445         3.120583         1.616187
 C        -0.578463         3.880069         2.806232
 C         0.831505         3.286226         2.580026
 O         1.014892         2.937089         1.196834
 C        -0.200557         2.779212         0.590532
 H         1.084022         0.742403         1.198322
 H        -2.562576         1.531121        -0.540571
 H        -2.255765        -0.126054         0.346034
 H        -1.708183         1.030772         2.610832
 H        -2.297829         3.597273         1.220352
 H        -0.745423         4.971731         2.519635
 H        -1.022208         3.816399         3.800298
 H         1.570111         4.053981         2.863523
 H         0.910213         2.438593         3.275651
 H         0.048174         3.300543        -0.460443
