19
Iteration:  1633charge 0 multiplicity 1
 O         0.280960         0.205382         0.700215
 C        -0.517929         1.366427         0.599677
 C        -1.962655         1.017179         0.334005
 C        -1.676564         1.599614         1.643355
 C        -1.344004         3.024732         1.588540
 C        -0.585444         3.761560         2.720265
 C         0.883011         3.247208         2.588177
 O         0.991708         3.166939         1.148463
 C        -0.222538         2.790427         0.500736
 H         0.820868         0.351988         1.504363
 H        -2.590234         1.593313        -0.369444
 H        -2.137617         0.035269         0.297224
 H        -1.641316         1.003947         2.485061
 H        -2.260912         3.664499         1.284533
 H        -0.643464         4.874181         2.750995
 H        -1.055258         3.373648         3.719866
 H         1.612085         3.930087         2.951353
 H         1.023297         2.340589         3.184391
 H        -0.228136         3.295421        -0.459449
