19
Iteration:  3983
 O         0.283376         0.211042         0.585332
 C        -0.611152         1.258222         0.603581
 C        -2.021790         1.077879         0.141107
 C        -1.841545         1.611317         1.622614
 C        -1.258360         3.028116         1.606584
 C        -0.555434         3.450101         2.949309
 C         0.862431         3.866849         2.395887
 O         1.113017         2.919053         1.346608
 C        -0.152019         2.723982         0.601483
 H         0.661196         0.174475         1.481691
 H        -2.613485         1.886252        -0.351627
 H        -2.322900         0.042598        -0.069634
 H        -2.058638         1.135870         2.536078
 H        -2.042515         3.747134         1.183806
 H        -1.174638         4.177269         3.542381
 H        -0.435800         2.676622         3.680279
 H         0.952981         4.941888         2.013178
 H         1.784072         3.792727         3.046592
 H        -0.006679         3.238794        -0.389764
