19
Iteration:  1869
 O         0.411771         0.276386         0.648620
 C        -0.644860         1.187502         0.702235
 C        -2.009524         1.109314         0.194956
 C        -1.797675         1.588181         1.653896
 C        -1.395951         3.035174         1.656394
 C        -0.632043         3.679794         2.756404
 C         0.942229         3.435224         2.537912
 O         1.103275         3.023059         1.169882
 C        -0.224515         2.732143         0.612482
 H         1.244923         0.855410         0.739684
 H        -2.433449         1.904699        -0.448323
 H        -2.404603         0.125013         0.220526
 H        -2.282483         1.047605         2.444953
 H        -2.174062         3.746082         1.262769
 H        -0.867956         4.704278         2.750459
 H        -0.775337         3.358753         3.740840
 H         1.482730         4.423364         2.644481
 H         1.380867         2.712595         3.218617
 H        -0.112305         3.216348        -0.408689
