19
Iteration:  2814
 O         0.335055         0.344121         0.696981
 C        -0.561777         1.338563         0.577901
 C        -2.017826         1.120470         0.228932
 C        -1.763584         1.624263         1.615542
 C        -1.331702         3.097294         1.619083
 C        -0.578186         3.403277         2.948873
 C         0.792589         3.654293         2.330695
 O         1.108230         2.787864         1.292323
 C        -0.162709         2.725075         0.551417
 H         1.068064         0.764191         1.121971
 H        -2.497771         1.774474        -0.586039
 H        -2.495787         0.144500         0.182244
 H        -2.206908         1.091432         2.452400
 H        -1.987301         3.940746         1.307005
 H        -0.937457         4.355640         3.345830
 H        -0.574325         2.666195         3.740527
 H         0.777902         4.784933         2.021946
 H         1.501853         3.586572         3.154470
 H        -0.108870         3.309241        -0.404501
