19
Iteration:  3087charge 0 multiplicity 1
 O         0.303740         0.212347         0.610479
 C        -0.607201         1.252732         0.606908
 C        -1.955650         1.116645         0.094445
 C        -1.853225         1.582866         1.564778
 C        -1.399629         3.025717         1.671241
 C        -0.474076         3.548924         2.928287
 C         0.918698         3.867810         2.406199
 O         1.056937         2.812723         1.318765
 C        -0.193814         2.752386         0.681204
 H         1.032329         0.501936         1.216795
 H        -2.454428         1.622205        -0.749896
 H        -2.360635         0.015303         0.083042
 H        -2.073192         0.937165         2.419713
 H        -2.056204         3.826295         1.341812
 H        -0.943829         4.409901         3.479421
 H        -0.316970         2.881340         3.737999
 H         0.988123         4.896071         2.006005
 H         1.670055         3.568947         3.112488
 H        -0.329287         3.265173        -0.318838
