19
Iteration:  3102
 O         0.278162         0.233836         0.634634
 C        -0.605880         1.290314         0.599894
 C        -2.069300         1.082729         0.123389
 C        -1.758089         1.537122         1.550265
 C        -1.275077         3.059124         1.714737
 C        -0.596077         3.503708         3.012384
 C         0.884533         3.784338         2.308612
 O         1.135360         2.880223         1.334491
 C        -0.153585         2.755436         0.603575
 H         0.716843         0.339482         1.462683
 H        -2.402386         1.871005        -0.606918
 H        -2.308857         0.063349         0.037790
 H        -2.349740         0.913388         2.284913
 H        -2.120611         3.730550         1.450877
 H        -1.005997         4.427345         3.354330
 H        -0.723791         2.683648         3.736536
 H         0.705592         4.751026         1.715310
 H         1.852062         3.950993         2.936058
 H         0.056204         3.381405        -0.196978
