19
Iteration:  1762
 O         0.449434         0.357257         0.494451
 C        -0.535841         1.294587         0.701026
 C        -1.979452         1.066252         0.403209
 C        -1.689000         1.625574         1.821034
 C        -1.382349         3.146350         1.523236
 C        -0.662147         3.850638         2.661021
 C         0.717993         3.164482         2.566503
 O         1.067479         2.896644         1.177158
 C        -0.228686         2.742384         0.594458
 H         1.333384         0.898091         0.723598
 H        -2.716030         1.437339        -0.453599
 H        -2.070255         0.028473         0.492956
 H        -2.049780         1.281707         2.759501
 H        -2.092365         3.834236         1.165617
 H        -0.516192         4.940856         2.545474
 H        -1.102974         3.638355         3.689632
 H         1.574538         3.778041         2.822836
 H         0.706981         2.205675         3.196276
 H        -0.072644         3.309429        -0.306662
