19
Iteration:   395
 O         0.295407         0.307423         0.659518
 C        -0.620015         1.312561         0.673917
 C        -2.074750         1.086477         0.319161
 C        -1.730482         1.619683         1.711102
 C        -1.289795         3.067343         1.486264
 C        -0.617263         3.548082         2.766844
 C         0.898072         3.475649         2.583952
 O         1.133346         2.927961         1.191688
 C        -0.194714         2.771224         0.517170
 H         1.044121         0.799726         0.959546
 H        -2.451131         1.706075        -0.423509
 H        -2.387235         0.032764         0.196028
 H        -2.189640         1.124130         2.595393
 H        -1.921949         3.860843         1.062128
 H        -0.969535         4.521849         2.973848
 H        -0.891153         2.946657         3.599266
 H         1.305054         4.552776         2.610211
 H         1.565233         2.954530         3.218975
 H        -0.265162         3.256973        -0.479942
