19
Iteration:  1911charge 0 multiplicity 1
 O         0.337140         0.244920         0.681375
 C        -0.526660         1.281949         0.549265
 C        -2.079985         0.991370         0.312914
 C        -1.660251         1.639416         1.603011
 C        -1.382314         3.150305         1.602600
 C        -0.593644         3.573398         2.804784
 C         0.869199         3.417354         2.562555
 O         1.093413         3.047242         1.151176
 C        -0.207391         2.825354         0.560713
 H         0.932797         0.437988         1.351351
 H        -2.601966         1.497627        -0.492255
 H        -2.432704         0.017052         0.469244
 H        -1.943165         1.110877         2.457404
 H        -2.327437         3.774787         1.373080
 H        -0.819731         4.713911         2.957181
 H        -0.997303         3.009754         3.662763
 H         1.422426         4.371338         2.823218
 H         1.258382         2.639415         3.201060
 H        -0.252070         3.304634        -0.449427
