19
Iteration:  2825
 O         0.354491         0.324926         0.689068
 C        -0.703848         1.256091         0.602206
 C        -2.072348         1.050176         0.148840
 C        -1.738233         1.667496         1.544167
 C        -1.279986         3.074143         1.609310
 C        -0.563937         3.456696         2.927907
 C         0.832787         3.705276         2.424066
 O         1.105603         2.826018         1.287603
 C        -0.186236         2.778617         0.607585
 H         0.944200         0.728537         1.332197
 H        -2.577551         1.767238        -0.586281
 H        -2.275555         0.007234         0.214864
 H        -1.804595         1.110470         2.434547
 H        -2.114138         3.760764         1.419923
 H        -0.927131         4.344495         3.453709
 H        -0.504245         2.638704         3.615601
 H         1.074454         4.731788         1.985448
 H         1.615456         3.452335         3.151106
 H        -0.102483         3.274421        -0.385092
