19
Iteration:  3391charge 0 multiplicity 1
 O         0.263062         0.170500         0.669857
 C        -0.658669         1.297365         0.546040
 C        -2.045710         1.157597         0.155477
 C        -1.669887         1.544842         1.558204
 C        -1.316661         3.052745         1.671006
 C        -0.553495         3.465445         2.905150
 C         0.870516         3.883274         2.319193
 O         1.107094         2.783586         1.380263
 C        -0.159702         2.795593         0.660931
 H         1.031042         0.530256         1.159711
 H        -2.553786         1.848332        -0.574766
 H        -2.308286         0.175825         0.013122
 H        -1.883665         0.754749         2.296395
 H        -2.083682         3.880239         1.434890
 H        -1.144638         4.320665         3.174931
 H        -0.681945         2.822890         3.800997
 H         0.697168         4.900875         1.922412
 H         1.639322         3.721058         3.051241
 H        -0.078883         3.503006        -0.235861
