19
Iteration:  1411charge 0 multiplicity 1
 O         0.347481         0.184980         0.526838
 C        -0.541215         1.294484         0.561456
 C        -2.004248         0.968024         0.339608
 C        -1.726341         1.674355         1.672985
 C        -1.365076         3.151234         1.588911
 C        -0.634598         3.770342         2.786835
 C         0.846986         3.417833         2.598303
 O         1.111823         2.937425         1.186719
 C        -0.222598         2.787060         0.639901
 H         1.032618         0.557954         1.108023
 H        -2.493575         1.290216        -0.547891
 H        -2.169467        -0.018595         0.622169
 H        -2.038559         1.177573         2.539709
 H        -2.276841         3.812672         1.219315
 H        -0.850802         4.888458         2.651108
 H        -1.129160         3.438582         3.758466
 H         1.511909         4.281367         2.619997
 H         1.223766         2.588473         3.289495
 H        -0.240028         3.360510        -0.307707
