19
Iteration:  2015
 O         0.443685         0.383981         0.564372
 C        -0.567703         1.302147         0.567910
 C        -1.989469         1.007257         0.477979
 C        -1.709863         1.666984         1.724400
 C        -1.435254         3.165654         1.478428
 C        -0.604808         3.666184         2.720167
 C         0.781773         3.208782         2.630429
 O         1.061052         2.961042         1.187330
 C        -0.202723         2.776768         0.528723
 H         1.168986         0.935018         1.070573
 H        -2.538113         1.604621        -0.384312
 H        -2.297892         0.019372         0.455373
 H        -1.809588         1.190035         2.661171
 H        -2.198402         3.850001         1.090903
 H        -0.725692         4.678854         2.735383
 H        -0.995135         3.311010         3.666284
 H         1.541359         3.892581         2.976927
 H         0.834564         2.292235         3.276964
 H        -0.166735         3.281879        -0.487524
