19
Iteration:  3424charge 0 multiplicity 1
 O         0.313678         0.170325         0.504677
 C        -0.595607         1.194513         0.721889
 C        -1.996883         1.117096         0.156346
 C        -1.769176         1.616021         1.624232
 C        -1.311106         3.164063         1.634657
 C        -0.561017         3.513497         2.904363
 C         0.875985         3.812631         2.421147
 O         1.059852         2.902116         1.317569
 C        -0.194209         2.698167         0.629396
 H         0.889865         0.179073         1.262371
 H        -2.360437         1.852509        -0.606181
 H        -2.329653         0.085309         0.115864
 H        -2.186082         0.988443         2.420928
 H        -2.242861         3.712400         1.278782
 H        -1.157701         4.361897         3.206755
 H        -0.589612         2.721118         3.693255
 H         1.217698         4.892861         2.240653
 H         1.657867         3.561073         3.170294
 H        -0.100647         3.188198        -0.411698
