19
Iteration:  2526
 O         0.404471         0.246225         0.634247
 C        -0.524483         1.339652         0.665858
 C        -1.936402         0.999527         0.348148
 C        -1.654929         1.637685         1.669754
 C        -1.349448         3.183996         1.579985
 C        -0.535915         3.803085         2.745697
 C         0.761850         3.059366         2.544138
 O         0.965678         3.116990         1.233487
 C        -0.354629         2.826981         0.472558
 H         1.246429         0.564140         0.931299
 H        -2.428918         1.407670        -0.614171
 H        -2.156469        -0.171557         0.438241
 H        -1.878504         1.145058         2.590906
 H        -2.208719         3.783331         1.317052
 H        -0.415069         4.878320         2.684933
 H        -0.940808         3.682170         3.764451
 H         1.648162         3.473094         2.943965
 H         0.667317         2.039276         2.967084
 H        -0.181531         3.291853        -0.589630
