19
Iteration:  2136charge 0 multiplicity 1
 O         0.264615         0.180599         0.465433
 C        -0.598915         1.277796         0.713228
 C        -2.032593         0.959546         0.380399
 C        -1.669158         1.625127         1.757176
 C        -1.380623         3.138402         1.496351
 C        -0.646072         3.715453         2.694187
 C         0.882719         3.278831         2.656743
 O         1.072564         3.306884         1.244908
 C        -0.087690         2.719733         0.546552
 H         1.060888         0.395245         0.910409
 H        -2.512553         1.488556        -0.513326
 H        -2.035434        -0.247314         0.263503
 H        -1.845675         1.036465         2.635983
 H        -2.187306         3.805623         1.163073
 H        -0.720646         4.745468         2.704450
 H        -1.215318         3.291547         3.550572
 H         1.646889         3.843330         3.206152
 H         0.873667         2.214458         2.958685
 H         0.076404         3.160920        -0.550661
