19
Iteration:  3680
 O         0.272729         0.257170         0.653671
 C        -0.565204         1.330899         0.598317
 C        -1.989624         1.042172         0.205522
 C        -1.713742         1.618282         1.566474
 C        -1.307767         3.145191         1.629163
 C        -0.550990         3.416226         2.871814
 C         0.829546         3.782304         2.462316
 O         1.065013         2.768865         1.337835
 C        -0.200510         2.791294         0.506770
 H         0.947972         0.503038         1.345763
 H        -2.277074         1.841795        -0.527480
 H        -2.290995        -0.015853         0.165225
 H        -2.027709         0.949316         2.409581
 H        -2.111189         3.949357         1.455548
 H        -1.132958         4.154241         3.483458
 H        -0.812828         2.691924         3.673870
 H         0.958878         4.786710         1.986209
 H         1.656024         3.813560         3.098245
 H        -0.183788         3.481702        -0.407409
