19
Iteration:    21
 O         0.368702         0.428022         0.637055
 C        -0.661176         1.400584         0.693102
 C        -1.937324         0.873365         0.264305
 C        -1.798608         1.696459         1.684198
 C        -1.462099         3.273977         1.573602
 C        -0.551487         3.753843         2.749336
 C         0.908305         3.181520         2.599577
 O         1.104727         2.779644         1.173384
 C        -0.290508         2.809722         0.499131
 H         1.210846         0.965470         0.962596
 H        -2.491114         1.326952        -0.656882
 H        -1.972189        -0.206476         0.415832
 H        -1.969292         1.250665         2.687099
 H        -2.208955         3.965055         1.328955
 H        -0.437862         4.881506         2.835830
 H        -0.882226         3.362721         3.767820
 H         1.711909         3.859764         2.877615
 H         1.192167         2.269776         3.178797
 H        -0.070207         3.228568        -0.496300
