19
Iteration:  2990charge 0 multiplicity 1
 O         0.270698         0.169234         0.501639
 C        -0.565963         1.232746         0.617279
 C        -2.034931         1.122179         0.181308
 C        -1.706959         1.579762         1.663918
 C        -1.304165         3.023995         1.619862
 C        -0.611175         3.645696         2.948733
 C         0.864887         3.756771         2.419137
 O         1.070642         2.847975         1.324544
 C        -0.114154         2.756542         0.677971
 H         1.232479         0.233488         0.819856
 H        -2.462611         1.813208        -0.625170
 H        -2.568128         0.052558         0.207368
 H        -2.228551         1.116101         2.490219
 H        -2.039473         3.645542         1.068896
 H        -0.992615         4.701881         3.086839
 H        -0.859072         3.137631         3.810860
 H         0.805934         4.738782         1.955684
 H         1.552662         3.648047         3.285198
 H        -0.079211         3.312048        -0.222321
