19
Iteration:  3567
 O         0.213960         0.128045         0.442020
 C        -0.586520         1.269971         0.535532
 C        -2.029735         1.098637         0.208471
 C        -1.733720         1.613527         1.696993
 C        -1.303052         3.012068         1.575110
 C        -0.660574         3.588418         2.943039
 C         0.798964         3.930575         2.473211
 O         1.171396         2.833168         1.426362
 C        -0.052669         2.688681         0.595869
 H         0.917523         0.098733         1.089871
 H        -2.449691         1.876386        -0.458303
 H        -2.125811         0.011321         0.017369
 H        -1.953153         1.004555         2.534594
 H        -2.132738         3.665742         1.223528
 H        -1.087708         4.538960         3.329557
 H        -0.632250         2.817503         3.694118
 H         0.766452         4.914509         2.003717
 H         1.536385         4.017719         3.262315
 H        -0.046073         3.339545        -0.297770
