19
Iteration:  3446
 O         0.290521         0.156191         0.512217
 C        -0.584527         1.212384         0.636215
 C        -2.054623         1.137623         0.295098
 C        -1.858343         1.595315         1.652349
 C        -1.349573         3.049291         1.572309
 C        -0.588078         3.525290         2.872353
 C         0.818102         3.789908         2.452279
 O         1.155980         2.983383         1.304006
 C        -0.053137         2.666488         0.633650
 H         1.158785         0.563973         0.801746
 H        -2.342932         1.874865        -0.490667
 H        -2.375604         0.081486         0.147547
 H        -2.406577         1.126436         2.477485
 H        -1.934185         3.833854         0.946090
 H        -1.042642         4.396440         3.369544
 H        -0.655680         2.713580         3.621329
 H         1.105180         4.899682         2.482295
 H         1.524877         3.479344         3.256927
 H         0.016982         3.172112        -0.410486
