19
Iteration:  4475charge 0 multiplicity 1
 O         0.335193         0.121474         0.502864
 C        -0.629533         1.163789         0.562458
 C        -2.060560         1.207150         0.158157
 C        -1.712480         1.550264         1.610552
 C        -1.286592         3.014568         1.621466
 C        -0.623487         3.544485         2.972707
 C         0.815873         3.943833         2.424225
 O         1.101807         2.943821         1.454661
 C        -0.066893         2.679258         0.632896
 H        -0.057841        -0.395385        -0.254327
 H        -2.547202         1.932228        -0.427574
 H        -2.535081         0.201928         0.145917
 H        -1.509541         0.927312         2.522350
 H        -1.927643         3.777512         1.206307
 H        -1.339548         4.315369         3.479788
 H        -0.560440         2.825370         3.808322
 H         0.775996         4.961825         1.993877
 H         1.574478         3.887221         3.245847
 H         0.056683         3.373533        -0.191208
