19
Iteration:  3722charge 0 multiplicity 1
 O         0.353349         0.152665         0.560529
 C        -0.606268         1.160447         0.767459
 C        -1.966674         1.165967         0.145548
 C        -1.876051         1.606607         1.566186
 C        -1.322982         3.021671         1.602126
 C        -0.555494         3.520982         2.877435
 C         0.915453         3.817431         2.479700
 O         1.088247         2.968420         1.304142
 C        -0.231894         2.706636         0.591774
 H         1.120652         0.601825         0.936350
 H        -2.512569         1.879730        -0.653090
 H        -2.687478         0.328536         0.015307
 H        -2.182429         0.920756         2.409239
 H        -2.059993         3.843202         1.372069
 H        -1.059409         4.434390         3.345631
 H        -0.403867         2.842682         3.749309
 H         1.198905         4.884675         2.407200
 H         1.485676         3.434538         3.277755
 H        -0.086446         2.985604        -0.425727
