19
Iteration:   157charge 0 multiplicity 1
 O         0.263192         0.205891         0.541215
 C        -0.579084         1.278423         0.718401
 C        -1.961915         1.126430         0.285740
 C        -1.594742         1.647268         1.767466
 C        -1.323369         3.122539         1.545724
 C        -0.664868         3.671065         2.769493
 C         0.850561         3.470156         2.481696
 O         1.097739         2.925061         1.222017
 C        -0.230829         2.736971         0.565594
 H         0.952223         0.352873         1.114792
 H        -2.358100         1.816113        -0.406921
 H        -2.313622         0.161580         0.253680
 H        -1.967846         1.033980         2.660656
 H        -2.204804         3.661134         1.131232
 H        -0.839221         4.711571         2.869804
 H        -0.958365         3.129221         3.649250
 H         1.405080         4.461816         2.713746
 H         1.149957         2.791171         3.227728
 H        -0.436106         3.246988        -0.407669
