19
Iteration:  2079
 O         0.357982         0.308742         0.553761
 C        -0.573063         1.296163         0.668882
 C        -2.066794         1.082016         0.292507
 C        -1.609984         1.519612         1.697723
 C        -1.362266         3.028358         1.577111
 C        -0.639391         3.758058         2.745994
 C         0.808809         3.335536         2.648161
 O         1.043944         3.033099         1.182011
 C        -0.163150         2.734848         0.557672
 H         1.114086         0.495649         1.228969
 H        -2.543078         1.933502        -0.338044
 H        -2.441176         0.145415         0.116532
 H        -1.913827         0.941437         2.558486
 H        -2.189288         3.624079         1.107660
 H        -0.521290         4.789957         2.432426
 H        -0.968037         3.778234         3.795467
 H         1.549340         4.084405         2.887617
 H         1.052096         2.446007         3.241185
 H        -0.149740         3.334337        -0.430836
