19
Iteration:  4231
 O         0.285239         0.177647         0.613279
 C        -0.535170         1.207822         0.603976
 C        -2.023648         1.153989         0.193277
 C        -1.672333         1.612741         1.587338
 C        -1.292844         3.093654         1.619156
 C        -0.574062         3.460198         3.038002
 C         0.814992         3.852957         2.419298
 O         1.019341         2.927673         1.347056
 C        -0.150123         2.715672         0.617915
 H         0.250399        -0.208041        -0.272564
 H        -2.325852         1.831282        -0.594178
 H        -2.320053         0.129358        -0.025105
 H        -2.218804         1.009620         2.327016
 H        -1.912120         3.891722         1.272742
 H        -0.947599         4.410895         3.479232
 H        -0.578506         2.441176         3.559091
 H         0.832591         4.877186         1.968070
 H         1.785558         3.831232         3.064267
 H        -0.088664         3.032396        -0.443790
