19
Iteration:   589
 O         0.179630         0.093182         0.470143
 C        -0.518742         1.323454         0.688757
 C        -1.992404         1.065077         0.350769
 C        -1.648381         1.552776         1.714544
 C        -1.336253         3.099077         1.513923
 C        -0.603856         3.806132         2.752130
 C         0.851194         3.378682         2.697073
 O         1.089605         3.104398         1.241482
 C        -0.172518         2.783982         0.514489
 H         1.035859         0.176897         1.058358
 H        -2.597318         1.482654        -0.542597
 H        -2.099541        -0.021795         0.174864
 H        -1.764663         1.094118         2.652715
 H        -2.298398         3.544223         1.206572
 H        -0.595110         4.965223         2.500535
 H        -1.242874         3.761171         3.684240
 H         1.494027         4.171514         2.922855
 H         1.033923         2.444556         3.294448
 H        -0.073622         3.210670        -0.489199
