19
Iteration:  2874
 O         0.290403         0.154292         0.523901
 C        -0.629985         1.244758         0.729380
 C        -1.988820         1.176345         0.184453
 C        -1.713108         1.588013         1.676250
 C        -1.278130         3.144977         1.585366
 C        -0.691363         3.493872         2.946699
 C         0.842788         3.742553         2.456609
 O         1.136504         2.964069         1.224008
 C        -0.158117         2.653649         0.638003
 H         1.182131         0.216190         1.018573
 H        -2.150114         1.929511        -0.532116
 H        -2.543731         0.171957         0.086167
 H        -2.330779         0.841217         2.354667
 H        -1.953312         3.947138         1.229346
 H        -1.017719         4.516579         3.288522
 H        -0.787182         2.714672         3.887967
 H         0.917501         4.848727         2.021239
 H         1.654941         3.505228         3.193801
 H        -0.249387         2.978582        -0.483445
