19
Iteration:  2567
 O         0.328752         0.205315         0.560123
 C        -0.517706         1.252506         0.729596
 C        -2.025601         1.144114         0.345451
 C        -1.709959         1.580931         1.750142
 C        -1.381669         3.026552         1.544267
 C        -0.607901         3.692357         2.695745
 C         0.834988         3.287480         2.564013
 O         1.070855         3.192141         1.189953
 C        -0.160493         2.778374         0.521916
 H         1.129380         0.561039         1.089802
 H        -2.516963         1.819246        -0.334769
 H        -2.382093         0.026368         0.196767
 H        -1.847978         0.961989         2.654630
 H        -2.304662         3.568766         1.222680
 H        -0.737948         4.781984         2.642487
 H        -1.033016         3.273842         3.542542
 H         1.511104         3.995886         3.115392
 H         0.977630         2.377373         3.209692
 H        -0.216391         3.231705        -0.526878
