19
Iteration:   319
 O         0.170696         0.068844         0.573585
 C        -0.616099         1.195200         0.567437
 C        -2.045145         1.310641         0.146535
 C        -1.629995         1.557841         1.639924
 C        -1.231001         2.976711         1.673726
 C        -0.575560         3.524909         2.932017
 C         0.802545         3.990262         2.241713
 O         1.137453         2.810440         1.463701
 C        -0.139572         2.689560         0.680906
 H         0.869125         0.349293         1.190456
 H        -2.171551         2.174701        -0.423752
 H        -2.676874         0.483433        -0.148521
 H        -2.182872         0.982478         2.454175
 H        -2.002768         3.586123         1.340662
 H        -1.100719         4.346770         3.384041
 H        -0.329691         2.756420         3.621644
 H         0.562627         4.758356         1.429667
 H         1.595579         4.367740         2.814472
 H        -0.123023         3.264807        -0.205593
