19
Iteration:   968
 O         0.363675         0.324292         0.730471
 C        -0.574065         1.278944         0.627932
 C        -2.100021         1.116984         0.327229
 C        -1.626285         1.595426         1.637613
 C        -1.330459         3.098289         1.501710
 C        -0.657875         3.564950         2.698128
 C         0.888197         3.306350         2.561535
 O         1.068549         3.019262         1.183949
 C        -0.181353         2.834135         0.545224
 H         0.891169         0.642727         1.444016
 H        -2.585991         1.828665        -0.195018
 H        -2.505548         0.084702         0.226527
 H        -1.938026         1.118920         2.634925
 H        -2.182630         3.652064         1.094723
 H        -0.713263         4.603148         2.792799
 H        -1.169293         3.153154         3.614969
 H         1.506440         4.182196         2.822658
 H         1.114250         2.530905         3.288919
 H        -0.194696         3.266923        -0.520875
