19
Iteration:  4146
 O         0.323406         0.085072         0.559780
 C        -0.588519         1.264672         0.593484
 C        -2.057488         1.170107         0.141525
 C        -1.700018         1.548099         1.572986
 C        -1.326949         3.089713         1.671374
 C        -0.677772         3.649776         2.940062
 C         0.890002         3.740566         2.424912
 O         1.065974         2.906373         1.346524
 C        -0.143709         2.707717         0.679802
 H         1.085210         0.250191        -0.068304
 H        -2.800111         1.817341        -0.285949
 H        -2.278334         0.126693         0.176608
 H        -1.726211         0.895127         2.474497
 H        -2.098468         3.716678         1.171666
 H        -0.932606         4.682705         3.346043
 H        -0.693145         3.041777         3.874511
 H         1.016563         4.888883         2.198602
 H         1.648794         3.597762         3.279769
 H        -0.050002         3.160033        -0.321796
