19
Iteration:  1333charge 0 multiplicity 1
 O         0.305228         0.191034         0.688605
 C        -0.544517         1.301087         0.507754
 C        -1.968415         0.968443         0.301337
 C        -1.579221         1.616966         1.711712
 C        -1.293296         3.193410         1.529094
 C        -0.553886         3.810977         2.742858
 C         0.737425         3.137284         2.643080
 O         0.984218         3.161959         1.195224
 C        -0.247409         2.789938         0.563878
 H         1.121776         0.551592         0.976826
 H        -2.665240         1.491594        -0.313516
 H        -2.245657        -0.032415         0.247412
 H        -1.708917         1.010896         2.592338
 H        -2.243431         3.691293         1.126545
 H        -0.434640         4.923959         2.487150
 H        -1.104613         3.753530         3.691381
 H         1.533292         3.778006         3.087434
 H         0.872043         2.086211         2.960954
 H        -0.215212         3.384509        -0.362984
