19
Iteration:   509
 O         0.364319         0.248127         0.536168
 C        -0.574001         1.317775         0.568914
 C        -2.041929         0.885520         0.351873
 C        -1.660527         1.691112         1.676533
 C        -1.327158         3.228254         1.566832
 C        -0.618353         3.869902         2.797013
 C         0.819583         3.274411         2.714081
 O         1.033020         2.862488         1.175952
 C        -0.207709         2.836008         0.474786
 H         1.235701         0.635528         0.985798
 H        -2.813440         1.415820        -0.316047
 H        -2.162220        -0.216272         0.507077
 H        -1.699012         1.301150         2.745242
 H        -2.099922         3.853708         1.236069
 H        -0.712511         4.983909         2.645365
 H        -1.147908         3.532974         3.761860
 H         1.668721         3.886512         2.911614
 H         0.925654         2.468967         3.461627
 H        -0.082486         3.229591        -0.510683
