19
Iteration:  4982charge 0 multiplicity 1
 O         0.358729         0.160638         0.322229
 C        -0.578197         1.173298         0.637514
 C        -1.937461         1.213448         0.216591
 C        -1.745276         1.585579         1.662274
 C        -1.388769         3.077489         1.715645
 C        -0.536655         3.532086         2.970752
 C         0.818999         3.932597         2.331449
 O         1.006223         2.843788         1.480939
 C        -0.213639         2.618842         0.657785
 H         1.237602         0.472551         0.675355
 H        -2.354185         1.881528        -0.597003
 H        -2.412171         0.190743        -0.041677
 H        -2.347477         0.948439         2.450585
 H        -2.091588         3.897539         1.263759
 H        -1.002330         4.431064         3.350003
 H        -0.359473         2.731214         3.770454
 H         0.803390         4.851826         1.744877
 H         1.697260         4.002203         3.215120
 H         0.108959         3.008619        -0.349009
