19
Iteration:  4345charge 0 multiplicity 1
 O         0.387889         0.140905         0.534779
 C        -0.613819         1.265752         0.567052
 C        -2.056446         1.163779         0.208917
 C        -1.755489         1.589695         1.592717
 C        -1.351608         3.064588         1.609937
 C        -0.567280         3.455236         2.983445
 C         0.846049         3.818432         2.431265
 O         1.082135         2.941755         1.303932
 C        -0.116350         2.732556         0.614920
 H         0.571578         0.003177         1.462506
 H        -2.676419         1.871519        -0.342258
 H        -2.486442         0.187629         0.369426
 H        -2.181204         1.196251         2.486235
 H        -2.061930         3.725341         1.108991
 H        -0.967104         4.322252         3.590424
 H        -0.488683         2.522247         3.517946
 H         0.710362         4.889152         2.117699
 H         1.591701         3.734717         3.192219
 H         0.004757         3.237572        -0.395225
