19
Iteration:  1768
 O         0.492760         0.322712         0.468082
 C        -0.558107         1.289532         0.716282
 C        -1.996062         1.081232         0.398929
 C        -1.666120         1.652059         1.851660
 C        -1.338949         3.128236         1.468247
 C        -0.641520         3.813885         2.656260
 C         0.690281         3.160101         2.631325
 O         1.036429         2.962026         1.186374
 C        -0.240787         2.739697         0.551713
 H         1.274999         0.782892         0.782114
 H        -2.702362         1.617342        -0.183098
 H        -2.280465        -0.004102         0.624075
 H        -2.046965         1.273632         2.847235
 H        -2.146394         3.819294         1.041592
 H        -0.370517         4.874542         2.526684
 H        -1.176289         3.691143         3.585397
 H         1.595183         3.691653         3.047908
 H         0.720245         2.174185         3.062768
 H        -0.165547         3.246282        -0.473601
