19
Iteration:  1488charge 0 multiplicity 1
 O         0.286075         0.249523         0.448185
 C        -0.587678         1.238681         0.803600
 C        -1.893324         0.928250         0.270504
 C        -1.748813         1.660116         1.673566
 C        -1.390656         3.170883         1.600014
 C        -0.596316         3.829050         2.739185
 C         0.881972         3.346262         2.644896
 O         1.089027         3.075691         1.210574
 C        -0.254110         2.695791         0.596600
 H         1.156549         0.577747         0.753019
 H        -2.294373         1.240961        -0.646256
 H        -2.110928        -0.202203         0.464300
 H        -2.139071         1.045960         2.550359
 H        -2.137666         3.809106         0.946835
 H        -0.843541         4.947709         2.552488
 H        -1.075656         3.492613         3.755819
 H         1.647695         4.111351         2.905921
 H         1.247554         2.392005         3.261013
 H        -0.237262         3.057985        -0.393608
