19
Iteration:  4297
 O         0.223571        -0.008498         0.592879
 C        -0.557682         1.248960         0.634313
 C        -2.013086         1.221950         0.143694
 C        -1.698285         1.597417         1.495409
 C        -1.326248         3.071358         1.798039
 C        -0.565338         3.450525         2.988231
 C         0.827299         3.921109         2.327425
 O         1.091368         2.983599         1.321617
 C        -0.136072         2.707052         0.669465
 H         1.082515         0.152618         0.123853
 H        -2.196968         1.886318        -0.652898
 H        -2.302908         0.165320         0.145988
 H        -2.331945         1.008840         2.229446
 H        -2.099461         3.753019         1.450505
 H        -1.181163         4.285848         3.468010
 H        -0.295697         2.600549         3.735452
 H         0.549290         4.943363         1.960975
 H         1.660638         3.829169         3.133422
 H        -0.140137         3.242933        -0.265580
