19
Iteration:  3716charge 0 multiplicity 1
 O         0.349806         0.170050         0.596353
 C        -0.630916         1.155455         0.676596
 C        -1.993493         1.159424         0.170147
 C        -1.853598         1.542307         1.562542
 C        -1.323348         3.063788         1.614021
 C        -0.563753         3.523510         2.858819
 C         0.951119         3.824968         2.497740
 O         1.101879         2.959987         1.303111
 C        -0.224625         2.712927         0.644162
 H         1.150177         0.678393         0.907689
 H        -2.363095         1.833751        -0.507403
 H        -2.576718         0.251977        -0.004337
 H        -2.408238         1.095715         2.356855
 H        -2.039654         3.831343         1.307489
 H        -1.044732         4.418444         3.156455
 H        -0.452313         2.640872         3.510878
 H         1.091766         4.904826         2.261925
 H         1.535132         3.363997         3.369383
 H        -0.302552         3.201425        -0.403300
