19
Iteration:   223
 O         0.335076         0.220824         0.556897
 C        -0.535355         1.323075         0.647992
 C        -2.036808         1.150515         0.306189
 C        -1.669663         1.626408         1.657821
 C        -1.336836         3.106806         1.596436
 C        -0.614394         3.679218         2.850834
 C         0.854751         3.566838         2.399466
 O         0.979329         2.721498         1.337675
 C        -0.190844         2.775173         0.538181
 H         1.015899         0.366686         1.205869
 H        -2.615330         1.706605        -0.377000
 H        -2.118335         0.099111         0.215320
 H        -1.837749         1.155389         2.677761
 H        -1.979946         3.861691         1.143111
 H        -0.903158         4.720901         2.879028
 H        -0.833929         3.147915         3.780725
 H         1.124055         4.623881         2.112701
 H         1.552753         3.258279         3.121128
 H         0.060229         3.332685        -0.402330
