19
Iteration:   411
 O         0.320546         0.335621         0.707833
 C        -0.635152         1.307652         0.614933
 C        -2.073762         1.047896         0.243203
 C        -1.724192         1.600461         1.625763
 C        -1.378346         3.082295         1.583579
 C        -0.589561         3.686365         2.782592
 C         0.937194         3.408570         2.506392
 O         1.088500         2.977703         1.180284
 C        -0.149635         2.719328         0.588857
 H         1.068940         0.768495         1.069595
 H        -2.810205         1.651557        -0.427813
 H        -2.277655         0.006467         0.380372
 H        -1.848055         1.068332         2.556521
 H        -2.277901         3.664142         1.357456
 H        -0.784906         4.815347         2.858948
 H        -0.898186         3.060197         3.688209
 H         1.688316         4.150928         2.746297
 H         1.116158         2.495881         3.226976
 H        -0.009717         3.176847        -0.382898
