19
Iteration:  3301
 O         0.233689         0.114041         0.616254
 C        -0.652944         1.274647         0.546056
 C        -2.037835         1.180374         0.191455
 C        -1.655187         1.484866         1.621398
 C        -1.299398         2.983193         1.599820
 C        -0.610010         3.599382         2.884758
 C         0.810312         3.800889         2.464984
 O         1.146363         2.934093         1.364441
 C        -0.127552         2.778235         0.552259
 H         1.011526         0.475600         1.096101
 H        -2.620795         1.883068        -0.360740
 H        -2.532053         0.146553         0.119610
 H        -1.744668         0.760774         2.441569
 H        -2.090170         3.662587         1.234745
 H        -0.976216         4.499657         3.253926
 H        -0.746861         3.035768         3.797499
 H         1.134271         4.811796         2.219276
 H         1.595794         3.449482         3.230979
 H        -0.090446         3.375027        -0.420874
