19
Iteration:  1154charge 0 multiplicity 1
 O         0.326038         0.282117         0.672863
 C        -0.589900         1.304721         0.531287
 C        -2.076405         1.023400         0.300767
 C        -1.618488         1.542207         1.597382
 C        -1.350514         3.106151         1.631431
 C        -0.582541         3.815988         2.750583
 C         0.827747         3.325266         2.603667
 O         1.064406         2.977972         1.216694
 C        -0.216549         2.773922         0.569825
 H         1.159161         0.725821         1.097239
 H        -2.683153         1.417143        -0.517528
 H        -2.047644        -0.014700         0.332861
 H        -1.753296         1.029185         2.502669
 H        -2.201576         3.661531         1.256951
 H        -0.592278         4.852171         2.455479
 H        -1.141675         3.775966         3.709815
 H         1.617756         4.053431         2.816040
 H         0.983419         2.433592         3.245044
 H        -0.159701         3.303279        -0.319948
