19
Iteration:  1342charge 0 multiplicity 1
 O         0.277627         0.135864         0.683735
 C        -0.497189         1.272167         0.597188
 C        -1.985008         1.075552         0.327175
 C        -1.500966         1.586118         1.651068
 C        -1.353267         3.146125         1.622058
 C        -0.654423         3.888801         2.724878
 C         0.765923         3.151267         2.647485
 O         0.954976         3.144623         1.128666
 C        -0.192112         2.830291         0.537952
 H         1.168600         0.339998         0.849829
 H        -2.491951         1.736297        -0.391371
 H        -2.132445        -0.044088         0.182637
 H        -1.435424         0.870750         2.549425
 H        -2.111447         3.649383         1.038095
 H        -0.536213         5.006678         2.647877
 H        -1.063181         3.665468         3.686737
 H         1.717174         3.561914         3.135509
 H         0.555829         2.104602         3.018317
 H        -0.243863         3.323586        -0.377733
