19
Iteration:   626charge 0 multiplicity 1
 O         0.344555         0.158385         0.588088
 C        -0.547305         1.265752         0.678346
 C        -2.061111         1.120156         0.388392
 C        -1.657882         1.658662         1.700112
 C        -1.301371         3.146878         1.480274
 C        -0.638201         3.793119         2.834951
 C         0.716849         3.143804         2.616132
 O         1.041765         3.217088         1.146214
 C        -0.129084         2.720876         0.452442
 H         1.267461         0.336070         1.114509
 H        -2.511065         1.594972        -0.379937
 H        -2.200597         0.065092         0.557394
 H        -1.826441         1.144034         2.719484
 H        -2.163968         3.817722         1.070099
 H        -0.558701         4.848300         2.864100
 H        -1.093052         3.388650         3.697793
 H         1.666211         3.638784         3.109895
 H         0.746137         2.114044         2.979638
 H         0.056971         2.963564        -0.664518
