19
Iteration:  1953charge 0 multiplicity 1
 O         0.355544         0.123705         0.532988
 C        -0.549538         1.261316         0.778509
 C        -1.934717         1.112691         0.333311
 C        -1.686593         1.627669         1.715715
 C        -1.423236         3.086351         1.547632
 C        -0.628000         3.736389         2.787184
 C         0.797887         3.240209         2.567448
 O         1.043460         3.192571         1.128125
 C        -0.200018         2.780712         0.568627
 H         1.233604         0.544052         0.814978
 H        -2.370626         1.615952        -0.520335
 H        -2.155280         0.116215         0.412609
 H        -2.124691         1.103107         2.456571
 H        -2.143222         3.794768         1.151060
 H        -0.593479         4.926064         2.709728
 H        -0.892377         3.455933         3.852126
 H         1.526521         3.940280         3.019357
 H         1.026248         2.252852         2.996237
 H        -0.252287         3.148267        -0.423036
