19
Iteration:  1107charge 0 multiplicity 1
 O         0.420368         0.388549         0.511654
 C        -0.577540         1.289005         0.680447
 C        -1.968025         1.024107         0.411300
 C        -1.792983         1.681717         1.772376
 C        -1.431789         3.103822         1.537712
 C        -0.679327         3.783799         2.633798
 C         0.769420         3.151061         2.613921
 O         1.104476         2.988581         1.248027
 C        -0.105007         2.706337         0.545475
 H         1.299712         0.885695         0.535397
 H        -2.640284         1.636375        -0.334179
 H        -2.330292        -0.103992         0.516790
 H        -2.085141         1.203829         2.772346
 H        -2.091594         3.692625         0.906342
 H        -0.456394         4.840613         2.384910
 H        -1.047376         3.881639         3.718137
 H         1.622178         3.805811         2.920695
 H         0.942242         2.144870         3.121597
 H        -0.037197         3.201074        -0.405270
