19
Iteration:  1306
 O         0.457088         0.416036         0.579989
 C        -0.566568         1.356420         0.758417
 C        -2.035225         0.960844         0.383939
 C        -1.827410         1.691598         1.694505
 C        -1.396621         3.186532         1.476014
 C        -0.635662         3.694426         2.709300
 C         0.809072         3.163264         2.605611
 O         1.128094         3.006129         1.134611
 C        -0.150816         2.729895         0.585746
 H         1.229696         0.690787         1.027230
 H        -2.625967         1.373621        -0.519103
 H        -2.311225        -0.161225         0.483214
 H        -2.198754         1.185253         2.618535
 H        -2.215438         3.702246         1.085437
 H        -0.766900         4.739044         2.646517
 H        -1.077331         3.349706         3.661812
 H         1.568786         3.793807         3.076128
 H         0.925573         2.129122         2.984868
 H        -0.096135         3.157391        -0.432753
