19
Iteration:  2762
 O         0.241071         0.086617         0.528485
 C        -0.607670         1.248853         0.619869
 C        -2.042194         1.114095         0.114000
 C        -1.807265         1.592320         1.595497
 C        -1.267402         3.002820         1.621947
 C        -0.569338         3.545780         2.997505
 C         0.894255         3.879312         2.428162
 O         1.144966         2.966998         1.310643
 C        -0.123563         2.707415         0.677266
 H         0.795127         0.362100         1.279860
 H        -2.547447         1.644577        -0.643082
 H        -2.237124         0.114520        -0.004119
 H        -2.211419         1.128880         2.413316
 H        -2.127881         3.643782         1.382682
 H        -1.166218         4.481645         3.344755
 H        -0.516818         2.828586         3.934870
 H         0.770199         4.853239         1.996437
 H         1.671621         3.815317         3.153652
 H        -0.173760         3.271632        -0.305100
