19
Iteration:  1133
 O         0.479268         0.358748         0.589501
 C        -0.584662         1.231265         0.643552
 C        -2.018120         0.994825         0.251359
 C        -1.624462         1.626287         1.738342
 C        -1.354546         3.155735         1.580840
 C        -0.588795         3.890988         2.725447
 C         0.800000         3.276793         2.622277
 O         0.986472         2.844409         1.250517
 C        -0.295432         2.764678         0.462059
 H         1.112579         0.758538         1.162533
 H        -2.493912         1.746799        -0.335876
 H        -2.559279         0.134302         0.286642
 H        -1.886812         1.049536         2.581030
 H        -2.160440         3.810757         1.199191
 H        -0.529153         4.962381         2.717331
 H        -1.028942         3.568285         3.735099
 H         1.730142         3.811408         2.814579
 H         0.830951         2.373374         3.206209
 H        -0.321908         3.342901        -0.465708
