19
Iteration:   978
 O         0.356730         0.306980         0.705168
 C        -0.615834         1.333594         0.664228
 C        -2.012004         1.112429         0.235000
 C        -1.668960         1.611507         1.712412
 C        -1.339108         3.097077         1.513724
 C        -0.629909         3.668300         2.797011
 C         0.822829         3.349607         2.609560
 O         1.083507         2.954921         1.143600
 C        -0.215004         2.772048         0.496199
 H         1.120260         0.553681         1.141776
 H        -2.506887         1.726363        -0.499766
 H        -2.296736         0.019625         0.202544
 H        -1.927116         1.124712         2.721984
 H        -2.198232         3.726550         1.286264
 H        -0.836989         4.699506         2.901451
 H        -0.966202         3.019544         3.677359
 H         1.499370         4.210354         2.786443
 H         1.231247         2.483109         3.087256
 H        -0.116338         3.014792        -0.593904
