19
Iteration:  3912charge 0 multiplicity 1
 O         0.351241         0.192165         0.429572
 C        -0.632202         1.178422         0.636993
 C        -2.036263         1.051828         0.221786
 C        -1.814342         1.638829         1.670033
 C        -1.282352         3.096145         1.628496
 C        -0.685198         3.583349         2.899601
 C         0.862783         3.804023         2.425519
 O         1.159027         2.875968         1.316800
 C        -0.145914         2.671648         0.678639
 H         1.142466         0.588489         0.893911
 H        -2.436257         1.729286        -0.559472
 H        -2.555197         0.128682         0.101041
 H        -2.206787         1.190071         2.645897
 H        -1.860890         4.051407         1.347148
 H        -1.117171         4.479808         3.332441
 H        -0.791653         2.874130         3.819020
 H         1.101493         4.788625         2.140332
 H         1.608586         3.625282         3.244874
 H        -0.094182         3.248688        -0.212478
