19
Iteration:  2308
 O         0.411964         0.273198         0.498403
 C        -0.551141         1.285249         0.647115
 C        -1.992163         1.000491         0.340941
 C        -1.696419         1.636150         1.734112
 C        -1.420475         3.139849         1.618514
 C        -0.606946         3.825513         2.713399
 C         0.785953         3.271296         2.585084
 O         1.033120         2.959757         1.199442
 C        -0.188165         2.804765         0.566374
 H         1.141446         0.568092         1.019721
 H        -2.442608         1.568710        -0.383303
 H        -2.175579        -0.113324         0.245782
 H        -1.930342         1.105635         2.714480
 H        -2.383613         3.573178         1.256802
 H        -0.542320         4.941975         2.506709
 H        -0.852842         3.580211         3.819483
 H         1.533687         3.961309         2.922005
 H         0.895571         2.341095         3.249283
 H        -0.182491         3.287366        -0.357869
