19
Iteration:  2371charge 0 multiplicity 1
 O         0.262174         0.199205         0.572347
 C        -0.549022         1.323091         0.600822
 C        -1.965275         1.017253         0.313319
 C        -1.652210         1.609516         1.706111
 C        -1.358971         3.085776         1.569824
 C        -0.635830         3.724708         2.768708
 C         0.878969         3.397091         2.616014
 O         1.029495         3.010315         1.199350
 C        -0.171367         2.799957         0.571771
 H         1.120981         0.535014         0.935562
 H        -2.602640         1.521120        -0.566333
 H        -2.119002        -0.126566         0.354864
 H        -2.144143         1.118621         2.600747
 H        -2.236740         3.652961         1.265125
 H        -0.707089         4.837677         2.827787
 H        -0.966203         3.297571         3.678904
 H         1.299111         4.411303         2.674791
 H         1.377990         2.605783         3.179491
 H        -0.095855         3.403331        -0.427440
