19
Iteration:  2946charge 0 multiplicity 1
 O         0.288424         0.185736         0.435060
 C        -0.607639         1.248958         0.637192
 C        -1.997547         1.159024         0.244654
 C        -1.738590         1.573013         1.560622
 C        -1.290490         3.065433         1.654109
 C        -0.558832         3.572819         2.899523
 C         0.835924         3.922930         2.307068
 O         1.072686         2.736034         1.502119
 C        -0.162081         2.688657         0.667413
 H         1.076361         0.356290         1.038235
 H        -2.467179         1.909042        -0.478584
 H        -2.492695         0.124618         0.184433
 H        -2.142864         1.127732         2.401686
 H        -2.029277         3.773526         1.243506
 H        -1.171220         4.371340         3.423308
 H        -0.500676         2.871556         3.642554
 H         0.691018         4.793493         1.692964
 H         1.672648         3.934575         3.020005
 H        -0.030889         3.303822        -0.174266
