19
Iteration:  2076charge 0 multiplicity 1
 O         0.374667         0.322258         0.559894
 C        -0.587744         1.298590         0.645653
 C        -2.078551         1.092418         0.316355
 C        -1.638443         1.515128         1.678884
 C        -1.347729         3.040562         1.579875
 C        -0.653565         3.731823         2.723580
 C         0.845748         3.336829         2.656071
 O         1.039439         3.017528         1.191018
 C        -0.155598         2.762672         0.566716
 H         1.068625         0.540631         1.183583
 H        -2.520160         1.804718        -0.293061
 H        -2.325315         0.005830         0.182100
 H        -2.050589         0.944260         2.600255
 H        -2.173429         3.651559         1.134116
 H        -0.628244         4.850410         2.322984
 H        -1.023692         3.696121         3.768845
 H         1.652366         4.080948         2.807314
 H         1.053955         2.441307         3.254978
 H        -0.138119         3.310667        -0.352733
