19
Iteration:  2960charge 0 multiplicity 1
 O         0.349791         0.216344         0.438212
 C        -0.574833         1.196087         0.625227
 C        -2.111160         1.219391         0.166592
 C        -1.756853         1.561827         1.773505
 C        -1.370386         3.025786         1.578723
 C        -0.561291         3.599557         2.831419
 C         0.854270         3.876890         2.334795
 O         1.045678         2.784378         1.475936
 C        -0.091610         2.670265         0.719244
 H         1.109629         0.417124         1.003796
 H        -2.402644         2.006810        -0.456328
 H        -2.555496         0.199120        -0.094616
 H        -2.262627         0.958210         2.616342
 H        -2.132813         3.696154         1.097183
 H        -0.960433         4.480679         3.398931
 H        -0.337218         2.591831         3.353603
 H         1.085281         4.840364         1.852986
 H         1.568313         3.973875         3.210762
 H         0.051357         3.114163        -0.325394
