19
Iteration:  1787
 O         0.391727         0.290746         0.495117
 C        -0.538077         1.219632         0.625906
 C        -2.099942         1.030015         0.521424
 C        -1.529073         1.662616         1.700935
 C        -1.372665         3.142775         1.519768
 C        -0.646047         3.856432         2.645486
 C         0.720342         3.062481         2.648876
 O         1.017178         3.177969         1.256253
 C        -0.170540         2.691516         0.479183
 H         1.232283         0.661792         0.876424
 H        -2.376738         1.527172        -0.362417
 H        -2.509402        -0.078806         0.471117
 H        -1.650619         1.187878         2.789458
 H        -2.262064         3.803882         1.260199
 H        -0.470555         4.995307         2.380932
 H        -1.150224         3.748797         3.723043
 H         1.588987         3.554161         3.053162
 H         0.646529         2.067864         3.122834
 H         0.189534         3.153066        -0.409114
