19
Iteration:  1474charge 0 multiplicity 1
 O         0.409678         0.247719         0.491037
 C        -0.547387         1.240296         0.659298
 C        -1.957448         0.989335         0.324390
 C        -1.850789         1.648787         1.715310
 C        -1.371400         3.118530         1.557803
 C        -0.568720         3.773888         2.741729
 C         0.879219         3.415829         2.586096
 O         1.009580         2.971587         1.232432
 C        -0.226675         2.731989         0.614631
 H         1.319663         0.491106         0.881427
 H        -2.454170         1.545079        -0.593805
 H        -2.161914        -0.053435         0.320827
 H        -2.335133         1.303240         2.566512
 H        -2.166605         3.786652         1.339632
 H        -0.577261         4.917800         2.729988
 H        -0.962842         3.518927         3.717817
 H         1.568520         4.303210         2.768425
 H         1.070947         2.603868         3.316073
 H        -0.142041         3.146626        -0.385700
