19
Iteration:   847charge 0 multiplicity 1
 O         0.320773         0.354428         0.569562
 C        -0.630454         1.307373         0.621681
 C        -1.939271         0.929836         0.360033
 C        -1.711091         1.719324         1.642697
 C        -1.384587         3.180652         1.480400
 C        -0.592606         3.775444         2.723587
 C         0.865348         3.290819         2.563124
 O         1.044946         2.791986         1.301473
 C        -0.207214         2.826254         0.564394
 H         1.102156         0.584687         1.263653
 H        -2.495723         1.269471        -0.370871
 H        -1.928457        -0.076691         0.522600
 H        -1.880095         1.160744         2.557024
 H        -2.132718         3.912312         1.155369
 H        -0.687932         4.790957         2.743104
 H        -1.036770         3.463545         3.704626
 H         1.555922         4.179747         2.693752
 H         1.267343         2.490315         3.240293
 H        -0.271012         3.621762        -0.291041
