19
Iteration:  4604charge 0 multiplicity 1
 O         0.369477         0.189049         0.631444
 C        -0.634910         1.186450         0.667628
 C        -2.042523         1.133495         0.076587
 C        -1.820517         1.558774         1.575857
 C        -1.323872         3.076296         1.623531
 C        -0.493587         3.433249         2.938588
 C         0.908313         3.743424         2.483309
 O         1.033567         3.049605         1.239508
 C        -0.215836         2.728608         0.664408
 H         1.195023         0.718120         0.758118
 H        -2.537710         1.761422        -0.610062
 H        -2.449436         0.138464         0.085148
 H        -2.373089         1.185659         2.564290
 H        -1.937699         3.959516         1.237885
 H        -0.926571         4.257435         3.522081
 H        -0.550250         2.504801         3.436380
 H         1.097325         4.852787         2.425784
 H         1.758795         3.373928         3.247737
 H        -0.101377         3.199231        -0.329227
