19
Iteration:  4747charge 0 multiplicity 1
 O         0.171904         0.176836         0.379719
 C        -0.601383         1.317030         0.523159
 C        -2.098578         1.186351         0.184760
 C        -1.586572         1.413859         1.604157
 C        -1.292285         2.942069         1.770975
 C        -0.656616         3.604303         2.881410
 C         0.784193         3.925410         2.362843
 O         1.120213         2.842402         1.488967
 C         0.000177         2.754384         0.711492
 H         0.720085        -0.004413         1.167697
 H        -2.542602         1.784257        -0.569551
 H        -2.286942         0.131072         0.011499
 H        -1.728144         0.681278         2.498550
 H        -2.143978         3.585022         1.345239
 H        -1.055136         4.607613         3.163104
 H        -0.502714         3.122898         3.805763
 H         0.714523         4.884965         1.873309
 H         1.653190         3.940064         3.159626
 H         0.059510         3.327911        -0.187050
