19
Iteration:   147charge 0 multiplicity 1
 O         0.229600         0.166821         0.557390
 C        -0.562579         1.299955         0.755938
 C        -2.013831         1.137609         0.301228
 C        -1.557980         1.579990         1.739995
 C        -1.354026         3.081447         1.521666
 C        -0.655004         3.654840         2.740474
 C         0.852589         3.421428         2.535173
 O         1.052857         3.054124         1.185564
 C        -0.146249         2.801043         0.551243
 H         0.657938        -0.062676         1.312013
 H        -2.569014         1.860726        -0.270355
 H        -2.160279         0.143375         0.059189
 H        -1.713550         1.124409         2.775222
 H        -2.249922         3.724304         1.205098
 H        -0.837050         4.701881         2.795985
 H        -1.061953         3.302222         3.677453
 H         1.540036         4.357393         2.765403
 H         1.276178         2.640430         3.202473
 H        -0.007892         3.057943        -0.532567
