19
Iteration:  4637charge 0 multiplicity 1
 O         0.320981         0.296195         0.668506
 C        -0.587321         1.329897         0.669369
 C        -1.952861         1.140245         0.101394
 C        -1.710371         1.554117         1.559150
 C        -1.309423         3.081545         1.670674
 C        -0.551118         3.385302         2.891387
 C         0.819057         3.640526         2.398424
 O         1.021423         2.911876         1.213244
 C        -0.239808         2.825387         0.666547
 H         0.691736         0.400458         1.548365
 H        -2.614462         1.695636        -0.516106
 H        -2.134462         0.116845         0.142224
 H        -1.962578         1.033292         2.597623
 H        -2.009404         3.893026         1.246348
 H        -0.898978         4.189305         3.541605
 H        -0.555589         2.600132         3.586913
 H         1.014198         4.705553         2.077732
 H         1.714559         3.254879         3.062770
 H        -0.192852         3.395131        -0.251325
