19
Iteration:  4305
 O         0.184785         0.040021         0.575911
 C        -0.511324         1.232650         0.630708
 C        -1.952195         1.234894         0.138942
 C        -1.785521         1.556553         1.606313
 C        -1.353424         3.051298         1.689269
 C        -0.571857         3.471795         3.017473
 C         0.829100         3.873770         2.361872
 O         1.114822         3.017267         1.317671
 C        -0.112410         2.695580         0.672932
 H         1.128037         0.196986         0.284432
 H        -2.580419         1.824020        -0.672369
 H        -2.216129         0.148039        -0.028531
 H        -2.361320         0.902050         2.282824
 H        -2.201011         3.787556         1.418594
 H        -0.993013         4.297880         3.555534
 H        -0.388832         2.499092         3.553489
 H         0.786213         4.914067         1.980703
 H         1.795151         4.038752         2.880001
 H        -0.121527         3.168374        -0.319614
