19
Iteration:  1395charge 0 multiplicity 1
 O         0.369136         0.239776         0.444911
 C        -0.608400         1.148785         0.720622
 C        -2.022639         0.922551         0.311009
 C        -1.797952         1.666985         1.672220
 C        -1.326552         3.167174         1.577157
 C        -0.596770         3.828852         2.784721
 C         0.883436         3.410073         2.616151
 O         1.053698         3.092723         1.246054
 C        -0.162133         2.696392         0.534738
 H         1.103710         0.237615         0.999411
 H        -2.620367         1.453488        -0.499584
 H        -2.294344        -0.208402         0.444905
 H        -2.320708         1.208109         2.600570
 H        -2.036899         3.795935         1.119119
 H        -0.610915         4.908635         2.787112
 H        -0.901468         3.488505         3.743384
 H         1.588260         4.195159         3.007044
 H         1.022481         2.539432         3.248673
 H         0.027393         3.075420        -0.480353
