19
Iteration:  4672
 O         0.344287         0.244252         0.566096
 C        -0.666357         1.251009         0.600382
 C        -2.081105         1.096462         0.132203
 C        -1.764861         1.625324         1.574853
 C        -1.258383         3.038376         1.647237
 C        -0.582443         3.452946         2.927129
 C         0.828782         3.744807         2.465367
 O         1.107311         2.930855         1.328567
 C        -0.122489         2.730265         0.649069
 H         1.161868         0.739393         0.751593
 H        -2.717664         1.665635        -0.552738
 H        -2.377576         0.081224         0.282212
 H        -2.093255         1.003039         2.368862
 H        -2.035032         3.795495         1.358833
 H        -1.038595         4.369488         3.430600
 H        -0.438918         2.644835         3.623412
 H         0.840442         4.803121         2.116101
 H         1.628993         3.675450         3.302156
 H        -0.240878         3.242279        -0.318074
