19
Iteration:    35
 O         0.423646         0.500514         0.706033
 C        -0.642910         1.318287         0.610479
 C        -2.025479         0.921695         0.336320
 C        -1.827842         1.722729         1.590288
 C        -1.282594         3.151121         1.552918
 C        -0.518021         3.683707         2.794077
 C         0.888076         3.176447         2.529582
 O         0.995706         2.803400         1.181669
 C        -0.234863         2.851482         0.556300
 H         1.157834         1.143844         0.992485
 H        -2.553507         1.170347        -0.492643
 H        -2.246163        -0.109796         0.681247
 H        -2.256809         1.244596         2.416495
 H        -1.994802         3.938342         1.187713
 H        -0.567669         4.735594         2.668777
 H        -0.953941         3.413282         3.725551
 H         1.664383         3.940643         2.721823
 H         1.141919         2.395397         3.227884
 H        -0.228415         3.458221        -0.342777
