19
Iteration:   479charge 0 multiplicity 1
 O         0.365744         0.293967         0.579123
 C        -0.582047         1.333856         0.681916
 C        -2.057430         1.059288         0.466729
 C        -1.573188         1.674986         1.774277
 C        -1.313246         3.111615         1.462876
 C        -0.670809         3.734434         2.621729
 C         0.743067         3.039137         2.663902
 O         1.097755         3.123040         1.155582
 C        -0.165109         2.811180         0.505586
 H         1.312240         0.592338         0.831659
 H        -2.743390         1.716219        -0.177886
 H        -2.326190        -0.045662         0.575383
 H        -1.830229         1.379505         2.824666
 H        -2.184847         3.731769         1.055841
 H        -0.684603         4.869669         2.484484
 H        -1.285936         3.428804         3.534113
 H         1.545333         3.496740         3.188345
 H         0.554776         1.938208         2.995814
 H        -0.191460         3.154279        -0.564547
