19
Iteration:  3616charge 0 multiplicity 1
 O         0.271466         0.112882         0.499428
 C        -0.536443         1.234748         0.675903
 C        -1.967384         1.216229         0.166211
 C        -1.767022         1.534729         1.586373
 C        -1.330450         3.065653         1.692365
 C        -0.636817         3.621932         2.879734
 C         0.852081         3.833974         2.431574
 O         1.063171         2.890900         1.330669
 C        -0.144347         2.672329         0.670096
 H         1.189358         0.135961         0.842814
 H        -2.276428         2.032126        -0.437855
 H        -2.254775         0.170261         0.113658
 H        -2.136353         0.815175         2.349659
 H        -2.063579         3.768568         1.245076
 H        -1.156274         4.540413         3.222803
 H        -0.497494         2.873508         3.706378
 H         0.960056         4.954529         2.231522
 H         1.542503         3.561299         3.277325
 H        -0.148997         3.022960        -0.426832
