19
Iteration:  3580
 O         0.185043         0.091049         0.455802
 C        -0.552017         1.271427         0.572543
 C        -2.034927         1.161278         0.235058
 C        -1.650688         1.491203         1.534593
 C        -1.267096         3.050663         1.660375
 C        -0.632221         3.574987         2.885739
 C         0.751133         3.865022         2.440246
 O         1.143129         2.908897         1.398346
 C        -0.064346         2.757022         0.716085
 H         0.684872         0.129108         1.319816
 H        -2.646511         1.628321        -0.517920
 H        -2.377000         0.195918         0.296674
 H        -1.886786         0.936488         2.451021
 H        -1.968394         3.813851         1.194748
 H        -1.270231         4.449096         3.131953
 H        -0.742924         3.010129         3.823304
 H         0.897131         4.887100         1.889858
 H         1.491650         3.736249         3.151067
 H         0.122918         3.244641        -0.311187
