19
Iteration:   104
 O         0.241448        -0.007636         0.575311
 C        -0.518995         1.170424         0.770400
 C        -2.033171         0.994274         0.244821
 C        -1.662835         1.610448         1.645124
 C        -1.349770         3.151037         1.627002
 C        -0.532241         3.840661         2.759101
 C         0.864346         3.175881         2.571713
 O         0.982362         3.382073         1.158775
 C        -0.122918         2.871236         0.562750
 H         0.976245         0.023641         1.175362
 H        -2.320079         1.714662        -0.518640
 H        -2.455970         0.043347         0.153583
 H        -2.017211         1.086867         2.600294
 H        -2.284594         3.754337         1.265808
 H        -0.427857         4.903763         2.598385
 H        -0.975321         3.689696         3.746044
 H         1.708546         3.737954         3.132007
 H         0.935787         2.143338         3.014222
 H        -0.305241         3.250547        -0.455780
