19
Iteration:  4341
 O         0.348694         0.165523         0.537151
 C        -0.597327         1.241832         0.592900
 C        -2.086870         1.190497         0.198636
 C        -1.735976         1.586225         1.600694
 C        -1.327867         3.033423         1.599146
 C        -0.577955         3.447010         2.942066
 C         0.851279         3.846061         2.414828
 O         1.096674         2.977535         1.327154
 C        -0.109584         2.711070         0.620876
 H         0.729128        -0.022155         1.443082
 H        -2.664831         1.802029        -0.465510
 H        -2.459475         0.191624         0.374047
 H        -2.266249         1.049057         2.432198
 H        -2.076496         3.793185         1.305778
 H        -1.049879         4.202911         3.660412
 H        -0.583994         2.502375         3.582239
 H         0.792911         4.881290         2.005773
 H         1.655912         3.591487         3.185504
 H        -0.034188         3.143570        -0.355824
