19
Iteration:   657charge 0 multiplicity 1
 O         0.427221         0.375286         0.763866
 C        -0.571971         1.329546         0.709088
 C        -1.986543         1.121039         0.252476
 C        -1.759494         1.657618         1.686117
 C        -1.460811         3.077910         1.604785
 C        -0.559158         3.744720         2.700157
 C         0.827189         3.044442         2.547840
 O         1.051477         2.982473         1.131911
 C        -0.240179         2.805753         0.543500
 H         1.252461         0.825991         0.772050
 H        -2.444893         1.571578        -0.628555
 H        -2.121686         0.070510         0.270164
 H        -1.987760         1.059378         2.573528
 H        -2.194879         3.877832         1.267574
 H        -0.393177         4.829065         2.338653
 H        -0.862449         3.790409         3.739846
 H         1.590499         3.747384         2.964910
 H         0.864640         2.041056         3.006534
 H        -0.202953         3.192114        -0.528113
