19
Iteration:   999charge 0 multiplicity 1
 O         0.372012         0.215809         0.598937
 C        -0.582232         1.214183         0.692026
 C        -1.925021         1.006705         0.247060
 C        -1.803452         1.668285         1.575914
 C        -1.376849         3.191857         1.645873
 C        -0.630616         3.746573         2.825159
 C         0.915403         3.369502         2.525814
 O         1.023973         3.002928         1.200628
 C        -0.216326         2.764669         0.651646
 H         1.311392         0.569639         0.529420
 H        -2.311401         1.607962        -0.635587
 H        -2.346015        -0.070191         0.324887
 H        -2.395025         1.185602         2.435038
 H        -2.105323         3.845876         1.182529
 H        -0.586710         4.804316         2.766668
 H        -0.956741         3.302101         3.837388
 H         1.682000         4.184093         2.627774
 H         1.193296         2.529737         3.182663
 H        -0.244171         3.099134        -0.371288
