19
Iteration:  4144charge 0 multiplicity 1
 O         0.315542         0.097955         0.557683
 C        -0.596273         1.282925         0.601026
 C        -2.052289         1.160347         0.146511
 C        -1.715201         1.528031         1.588553
 C        -1.313975         3.097355         1.686499
 C        -0.678135         3.645911         2.931876
 C         0.873426         3.746064         2.425446
 O         1.088252         2.898830         1.352353
 C        -0.145815         2.702919         0.652336
 H         1.077862         0.272226        -0.057586
 H        -2.768304         1.738953        -0.361781
 H        -2.301083         0.141856         0.119247
 H        -1.773388         0.912251         2.447143
 H        -2.054119         3.691947         1.240513
 H        -0.935991         4.690769         3.291019
 H        -0.680661         3.012039         3.870467
 H         1.051192         4.855264         2.233018
 H         1.638905         3.663052         3.277500
 H        -0.027791         3.198669        -0.369680
