19
Iteration:  1122charge 0 multiplicity 1
 O         0.494650         0.375600         0.544242
 C        -0.571756         1.275987         0.705995
 C        -2.001289         1.095243         0.359317
 C        -1.657814         1.630157         1.718675
 C        -1.361930         3.171859         1.535238
 C        -0.588180         3.808431         2.658462
 C         0.795205         3.209697         2.622764
 O         0.993923         2.843685         1.222058
 C        -0.310500         2.726570         0.558249
 H         1.247315         0.839580         0.883521
 H        -2.419337         1.638994        -0.462643
 H        -2.208071         0.084805         0.350903
 H        -2.070911         1.242785         2.606697
 H        -2.250458         3.738566         1.230186
 H        -0.585841         4.871598         2.467260
 H        -1.203554         3.649545         3.578149
 H         1.521100         3.971291         2.943418
 H         0.849300         2.376626         3.304612
 H        -0.188325         3.158097        -0.437504
