19
Iteration:  1907charge 0 multiplicity 1
 O         0.321547         0.226451         0.683024
 C        -0.536731         1.303477         0.552583
 C        -2.029061         0.971562         0.272753
 C        -1.640795         1.653905         1.616045
 C        -1.394131         3.134501         1.629800
 C        -0.616489         3.606789         2.798051
 C         0.892626         3.406315         2.537549
 O         1.080573         3.035531         1.168705
 C        -0.219995         2.823783         0.538760
 H         0.999678         0.548680         1.411310
 H        -2.579304         1.522590        -0.512705
 H        -2.535677        -0.001239         0.412762
 H        -1.955058         1.167618         2.560151
 H        -2.188019         3.859300         1.496675
 H        -0.918751         4.688385         2.993267
 H        -0.986547         2.953664         3.654774
 H         1.513938         4.285922         2.666711
 H         1.278475         2.678608         3.314098
 H        -0.372758         3.400462        -0.348471
