19
Iteration:   263
 O         0.146635         0.069821         0.463807
 C        -0.612311         1.263676         0.667935
 C        -2.120071         1.118946         0.263241
 C        -1.790507         1.543243         1.608868
 C        -1.205327         3.018389         1.595943
 C        -0.578666         3.613320         2.832453
 C         0.852299         3.882670         2.451546
 O         1.156886         2.981960         1.395144
 C        -0.026239         2.659804         0.643712
 H         1.088001         0.209327         0.911259
 H        -2.694720         1.779306        -0.408226
 H        -2.230508         0.098688         0.047601
 H        -1.972792         0.949934         2.546152
 H        -1.928291         3.695590         1.228481
 H        -1.038378         4.569595         3.139544
 H        -0.701703         3.003554         3.717652
 H         0.974685         4.883564         2.011590
 H         1.570029         3.802029         3.273566
 H        -0.004961         3.069178        -0.341630
