19
Iteration:   984
 O         0.339497         0.277182         0.671090
 C        -0.605419         1.330526         0.698024
 C        -1.959354         1.082287         0.227757
 C        -1.710068         1.642385         1.707211
 C        -1.369151         3.114223         1.560749
 C        -0.613689         3.709856         2.843863
 C         0.825977         3.356933         2.583449
 O         1.067556         2.946665         1.138247
 C        -0.197824         2.702523         0.470312
 H         1.202777         0.736764         0.978505
 H        -2.439362         1.680835        -0.667794
 H        -2.178979         0.042787         0.181411
 H        -1.937832         1.097381         2.565435
 H        -2.152900         3.850212         1.277652
 H        -0.965963         4.781403         3.071876
 H        -0.927365         3.209499         3.745151
 H         1.474266         4.216157         2.801001
 H         1.232912         2.470323         3.146063
 H        -0.117589         3.166368        -0.515448
