19
Iteration:  2848charge 0 multiplicity 1
 O         0.270904         0.205157         0.644615
 C        -0.592905         1.288928         0.541794
 C        -1.977716         1.027309         0.204869
 C        -1.833142         1.572148         1.569787
 C        -1.351658         3.078626         1.550017
 C        -0.496487         3.504162         2.932291
 C         0.932142         3.751251         2.449491
 O         1.058021         2.943497         1.345252
 C        -0.231319         2.776830         0.613184
 H         1.165705         0.446629         1.013592
 H        -2.455543         1.742179        -0.490357
 H        -2.223619         0.015723         0.233088
 H        -2.408321         1.090046         2.232343
 H        -2.082887         3.878342         1.343957
 H        -0.847468         4.442555         3.406335
 H        -0.388757         2.737703         3.674405
 H         1.341205         4.794650         2.213536
 H         1.568987         3.328431         3.242396
 H        -0.173919         3.247877        -0.411170
