19
Iteration:  4426charge 0 multiplicity 1
 O         0.311314         0.167330         0.499983
 C        -0.547859         1.222767         0.538122
 C        -1.964680         1.169371         0.270410
 C        -1.698079         1.503023         1.691606
 C        -1.335667         3.094191         1.621367
 C        -0.614291         3.654143         2.916355
 C         0.808582         3.805343         2.483869
 O         1.056557         2.844009         1.369935
 C        -0.184338         2.683754         0.596987
 H         0.845829         0.371722        -0.276455
 H        -2.355397         1.914107        -0.519829
 H        -2.254525         0.169329        -0.057247
 H        -2.230967         1.133643         2.562989
 H        -2.241911         3.704466         1.308897
 H        -1.027900         4.491211         3.377460
 H        -0.650765         2.865448         3.678210
 H         1.086315         4.843612         2.237626
 H         1.462664         3.601011         3.361398
 H         0.068043         3.220352        -0.376731
