19
Iteration:  4255
 O         0.259525         0.185119         0.675997
 C        -0.534718         1.283694         0.673268
 C        -2.067303         1.244697         0.118506
 C        -1.774196         1.545085         1.553222
 C        -1.379765         2.937720         1.703673
 C        -0.569285         3.406316         2.890998
 C         0.779986         3.926188         2.335155
 O         1.174342         2.902749         1.331779
 C        -0.074229         2.745758         0.714380
 H         0.373103        -0.040505        -0.242786
 H        -2.524961         1.905183        -0.519446
 H        -2.333968         0.195473        -0.073551
 H        -1.940126         0.842302         2.432022
 H        -2.094286         3.684118         1.460827
 H        -1.000923         4.384541         3.271597
 H        -0.167701         2.586853         3.527630
 H         0.953082         4.916841         1.861526
 H         1.485203         3.861258         3.229848
 H        -0.104455         3.278069        -0.296347
