19
Iteration:  3205
 O         0.274754         0.180505         0.547232
 C        -0.550309         1.295055         0.597710
 C        -1.975331         1.199710         0.190258
 C        -1.638929         1.561787         1.675643
 C        -1.390687         3.022370         1.579748
 C        -0.586815         3.570286         2.888813
 C         0.870605         3.841716         2.345022
 O         1.000825         2.830815         1.424181
 C        -0.167537         2.698413         0.586763
 H         0.881843         0.116779         1.349947
 H        -2.472820         1.899012        -0.419878
 H        -2.510038         0.207137         0.021719
 H        -1.822855         0.935029         2.580047
 H        -2.154024         3.696565         1.080123
 H        -1.134735         4.307900         3.561401
 H        -0.605455         2.727637         3.741005
 H         1.171221         4.881927         1.873695
 H         1.518679         3.570977         3.171348
 H         0.134801         3.296088        -0.238441
