19
Iteration:  3579
 O         0.186356         0.091219         0.452884
 C        -0.548400         1.273585         0.569971
 C        -2.032416         1.165589         0.244477
 C        -1.660705         1.493283         1.541505
 C        -1.273618         3.048661         1.651050
 C        -0.633545         3.574201         2.897276
 C         0.749213         3.878232         2.444821
 O         1.149909         2.900426         1.393732
 C        -0.061977         2.753758         0.711033
 H         0.665439         0.163454         1.303111
 H        -2.635391         1.602518        -0.546649
 H        -2.382707         0.161577         0.270931
 H        -1.869029         0.949806         2.446443
 H        -1.968844         3.819538         1.216218
 H        -1.263614         4.461148         3.105804
 H        -0.733364         2.990216         3.809153
 H         0.888925         4.848362         1.882033
 H         1.480755         3.737656         3.166770
 H         0.128557         3.241226        -0.289528
