19
Iteration:  2234
 O         0.344575         0.197786         0.536219
 C        -0.567193         1.272387         0.661467
 C        -1.980655         1.060638         0.279530
 C        -1.697728         1.549986         1.759668
 C        -1.274730         3.130779         1.590057
 C        -0.627016         3.771391         2.744177
 C         0.792350         3.289990         2.583324
 O         0.984752         3.134042         1.199200
 C        -0.200980         2.776598         0.577590
 H         1.184149         0.452366         1.048688
 H        -2.325223         1.718685        -0.477633
 H        -2.143850        -0.116902         0.110153
 H        -1.921113         0.971205         2.723091
 H        -2.045293         3.795572         1.133751
 H        -0.568250         4.826941         2.670216
 H        -0.965994         3.413577         3.749895
 H         1.532852         3.988192         2.957525
 H         0.890887         2.328083         3.086438
 H        -0.091144         3.196247        -0.489551
