19
Iteration:  2969charge 0 multiplicity 1
 O         0.380386         0.201351         0.436852
 C        -0.699124         1.209831         0.658561
 C        -2.058429         1.264907         0.204633
 C        -1.775704         1.501311         1.761754
 C        -1.334873         3.075596         1.636742
 C        -0.571348         3.593233         2.795764
 C         0.860682         3.893110         2.361530
 O         1.089062         2.806343         1.441531
 C        -0.103779         2.609852         0.630853
 H         1.075541         0.579467         1.001329
 H        -2.418757         2.027678        -0.519491
 H        -2.365531         0.169159        -0.116832
 H        -2.159424         0.941442         2.611954
 H        -2.110035         3.708506         1.155047
 H        -1.168899         4.395099         3.322441
 H        -0.572699         2.894261         3.577749
 H         0.999280         4.875876         1.980489
 H         1.399500         3.559123         3.267624
 H         0.152684         3.040442        -0.297613
