19
Iteration:  3122charge 0 multiplicity 1
 O         0.264168         0.169812         0.606530
 C        -0.629851         1.255963         0.607014
 C        -2.012182         1.210664         0.192014
 C        -1.713820         1.615032         1.598396
 C        -1.279183         3.026246         1.586262
 C        -0.530000         3.411308         2.915683
 C         0.732913         3.914444         2.390953
 O         1.082322         2.861115         1.332061
 C        -0.096091         2.692351         0.628584
 H         0.742132         0.278174         1.456481
 H        -2.474491         2.079196        -0.425278
 H        -2.357826         0.152235         0.155037
 H        -1.785539         0.912156         2.496733
 H        -2.061924         3.717177         1.252955
 H        -1.095697         4.218726         3.413251
 H        -0.346378         2.554476         3.450919
 H         0.815684         4.902811         1.930945
 H         1.534093         3.974862         3.196118
 H        -0.026020         3.292609        -0.339989
