19
Iteration:  1681charge 0 multiplicity 1
 O         0.263164         0.118643         0.572076
 C        -0.453355         1.239765         0.749968
 C        -1.872756         1.144956         0.349902
 C        -1.721106         1.667035         1.743859
 C        -1.377501         3.111174         1.488302
 C        -0.647227         3.674428         2.766245
 C         0.866303         3.304723         2.502017
 O         0.945826         3.240310         1.144525
 C        -0.163332         2.677105         0.647821
 H         1.251088         0.257091         0.809999
 H        -2.389099         1.769434        -0.358006
 H        -2.239502         0.005373         0.227626
 H        -2.183566         1.133730         2.668132
 H        -2.010656         3.818478         0.922803
 H        -0.658467         4.750465         2.724905
 H        -1.065841         3.420376         3.665893
 H         1.605824         4.037383         2.989711
 H         1.017906         2.301192         3.000661
 H        -0.098590         3.038146        -0.463691
