19
Iteration:  3892charge 0 multiplicity 1
 O         0.295914         0.137721         0.412974
 C        -0.519550         1.274621         0.620445
 C        -2.030642         1.115489         0.300260
 C        -1.714970         1.627029         1.637270
 C        -1.342049         3.066252         1.525580
 C        -0.554386         3.597672         2.898725
 C         0.842844         3.786139         2.482403
 O         1.024860         2.874489         1.393793
 C        -0.132128         2.725042         0.589069
 H         0.933462         0.258410         1.127007
 H        -2.638789         1.647256        -0.367534
 H        -2.267371         0.077775         0.389903
 H        -2.122134         1.105356         2.556897
 H        -2.217899         3.715883         1.190310
 H        -0.991810         4.431195         3.443851
 H        -0.723008         2.743928         3.631098
 H         0.957048         4.857596         2.140509
 H         1.527273         3.580773         3.373192
 H        -0.026043         3.172088        -0.412392
