19
Iteration:  2312charge 0 multiplicity 1
 O         0.437421         0.287360         0.509146
 C        -0.548089         1.303055         0.651295
 C        -1.971361         1.011640         0.338818
 C        -1.718820         1.658741         1.716461
 C        -1.410706         3.118703         1.622086
 C        -0.629327         3.810287         2.700436
 C         0.812534         3.288765         2.579721
 O         1.031315         2.903639         1.190975
 C        -0.241842         2.783645         0.607083
 H         1.289066         0.578072         0.970841
 H        -2.515924         1.736692        -0.357111
 H        -2.220928        -0.087131         0.178251
 H        -1.869808         1.216697         2.711461
 H        -2.343399         3.570290         1.229926
 H        -0.593886         4.861720         2.540634
 H        -0.831026         3.660534         3.777774
 H         1.600204         3.998641         2.945277
 H         0.909699         2.426766         3.227746
 H        -0.282700         3.380666        -0.391304
