19
Iteration:  4210charge 0 multiplicity 1
 O         0.332722         0.130476         0.592198
 C        -0.622697         1.209957         0.594971
 C        -2.025022         1.108932         0.155464
 C        -1.758210         1.612460         1.641629
 C        -1.305932         3.031659         1.648247
 C        -0.568046         3.531370         2.899742
 C         0.848112         3.822114         2.476797
 O         1.118945         2.971012         1.370388
 C        -0.151631         2.795088         0.590761
 H         0.227095        -0.190546        -0.313752
 H        -2.554150         1.678431        -0.546834
 H        -2.477494         0.132687         0.169191
 H        -2.069485         0.972861         2.482018
 H        -2.037827         3.755082         1.413168
 H        -1.155803         4.391500         3.334506
 H        -0.649663         2.617650         3.514317
 H         1.118453         4.828531         2.228120
 H         1.627888         3.609831         3.270000
 H        -0.096574         3.338316        -0.401462
