19
Iteration:  2341charge 0 multiplicity 1
 O         0.483144         0.450835         0.587274
 C        -0.685342         1.240164         0.643615
 C        -2.116042         1.059155         0.253859
 C        -1.661420         1.582666         1.692569
 C        -1.350647         3.077211         1.607586
 C        -0.571839         3.783802         2.720016
 C         0.855089         3.395378         2.574578
 O         1.006151         2.839130         1.246910
 C        -0.194018         2.675391         0.541137
 H         1.277773         1.001873         0.968891
 H        -2.506894         1.725813        -0.385557
 H        -2.575504        -0.012834         0.060288
 H        -2.134965         1.070716         2.635312
 H        -2.363088         3.500363         1.336239
 H        -0.605998         4.927024         2.804742
 H        -0.739638         3.562103         3.856284
 H         1.477300         4.252992         2.652993
 H         1.211108         2.580353         3.330808
 H        -0.027245         3.082898        -0.379365
