19
Iteration:  3172
 O         0.218249         0.102538         0.510069
 C        -0.585284         1.217038         0.595663
 C        -1.989193         1.155592         0.129313
 C        -1.826031         1.573538         1.635193
 C        -1.282893         2.945080         1.682325
 C        -0.618626         3.606722         3.026987
 C         0.831710         3.882321         2.395931
 O         1.134051         3.006577         1.335510
 C        -0.077865         2.638157         0.638411
 H         1.078155         0.073624         0.932324
 H        -2.347132         1.834268        -0.559248
 H        -2.246115         0.030178         0.212923
 H        -2.351826         1.095431         2.477205
 H        -1.827896         3.811396         1.194123
 H        -1.144834         4.590469         3.067147
 H        -0.657924         2.805189         3.916485
 H         0.898827         4.952702         1.898035
 H         1.706995         3.791315         3.067662
 H        -0.018502         3.138461        -0.346531
