19
Iteration:  3786
 O         0.242111         0.173750         0.540293
 C        -0.650383         1.287496         0.502248
 C        -2.028381         1.078851         0.183554
 C        -1.641396         1.558762         1.607790
 C        -1.240538         3.077303         1.573846
 C        -0.557470         3.541115         2.986754
 C         0.796420         3.912825         2.448908
 O         1.096694         2.859773         1.430622
 C        -0.158411         2.681794         0.611401
 H         1.009647         0.394079         1.091284
 H        -2.759902         1.817463        -0.343514
 H        -2.449886         0.060036         0.194254
 H        -2.131968         0.969054         2.430583
 H        -1.898988         3.806644         1.129496
 H        -1.170387         4.364557         3.375003
 H        -0.539844         2.631521         3.495927
 H         0.840317         4.862795         1.904448
 H         1.617207         3.774531         3.184916
 H        -0.022794         3.215923        -0.335830
