19
Iteration:  3964
 O         0.292933         0.205428         0.643047
 C        -0.543113         1.292290         0.571064
 C        -2.095624         1.155571         0.149367
 C        -1.626790         1.571185         1.570326
 C        -1.327887         3.070430         1.679328
 C        -0.541372         3.505284         2.944557
 C         0.810799         3.785038         2.386998
 O         1.041797         2.832394         1.313722
 C        -0.164702         2.749742         0.594820
 H         0.692259         0.219104         1.512113
 H        -2.370597         1.718362        -0.820999
 H        -2.403563         0.125422         0.269417
 H        -2.052898         0.855817         2.302234
 H        -2.033658         3.811258         1.470725
 H        -0.862137         4.418853         3.438701
 H        -0.574022         2.792802         3.760369
 H         0.685928         4.887381         1.963125
 H         1.665094         3.696172         2.992174
 H        -0.086690         3.405724        -0.321768
