19
Iteration:  3231charge 0 multiplicity 1
 O         0.307381         0.253460         0.528741
 C        -0.606610         1.288160         0.571569
 C        -2.069023         1.039724         0.213859
 C        -1.742158         1.622054         1.623916
 C        -1.285896         3.101822         1.618368
 C        -0.593499         3.559433         2.918871
 C         0.817229         3.770754         2.396919
 O         1.123722         2.769503         1.411231
 C        -0.159726         2.710330         0.634462
 H         1.200278         0.605972         0.866174
 H        -2.587086         1.479159        -0.727928
 H        -2.473729         0.080628         0.319303
 H        -1.927600         0.915770         2.435361
 H        -1.881797         3.882967         1.181240
 H        -1.014232         4.549053         3.250993
 H        -0.883486         2.968809         3.744478
 H         0.804457         4.764723         1.812461
 H         1.575340         3.950435         3.190477
 H         0.117079         3.413284        -0.211023
