19
Iteration:  4448charge 0 multiplicity 1
 O         0.214902         0.127437         0.538204
 C        -0.564776         1.294993         0.606169
 C        -2.046347         1.131643         0.214205
 C        -1.591159         1.496162         1.577180
 C        -1.337646         2.978811         1.576292
 C        -0.615974         3.570219         2.898247
 C         0.823480         3.856940         2.471037
 O         1.072443         2.900386         1.397109
 C        -0.060329         2.791328         0.706582
 H         0.323292         0.079271        -0.454166
 H        -2.639599         1.775217        -0.530540
 H        -2.258034         0.082437         0.192633
 H        -1.752813         0.967171         2.497364
 H        -2.135541         3.671595         1.168948
 H        -1.091138         4.456657         3.133628
 H        -0.671602         2.919481         3.784418
 H         0.969794         4.915789         2.175483
 H         1.555020         3.783663         3.286892
 H        -0.030667         3.550894        -0.174141
