19
Iteration:   378charge 0 multiplicity 1
 O         0.365347         0.170890         0.584486
 C        -0.590413         1.230066         0.652574
 C        -2.024818         1.108177         0.303113
 C        -1.786954         1.743617         1.628244
 C        -1.348915         3.206403         1.575961
 C        -0.609803         3.530944         2.909663
 C         0.876637         3.596147         2.443758
 O         1.044408         2.899996         1.233341
 C        -0.141459         2.696315         0.542857
 H         1.246047         0.497369         0.969919
 H        -2.580863         1.725104        -0.507572
 H        -2.392811         0.082835         0.347227
 H        -1.983340         1.304470         2.571082
 H        -2.173879         3.888766         1.258763
 H        -0.850012         4.538850         3.418035
 H        -0.901500         2.809798         3.748573
 H         1.199772         4.599030         2.262664
 H         1.508021         3.113565         3.275788
 H         0.030320         3.059217        -0.476010
