19
Iteration:   128charge 0 multiplicity 1
 O         0.248214         0.082441         0.568654
 C        -0.563364         1.222018         0.563927
 C        -2.041210         1.084495         0.374405
 C        -1.673191         1.577529         1.693059
 C        -1.290453         3.037802         1.584155
 C        -0.611130         3.772771         2.766086
 C         0.856118         3.361576         2.602781
 O         1.103439         3.323646         1.171902
 C        -0.105341         2.719653         0.516527
 H         0.312656        -0.069771         1.498542
 H        -2.605861         1.773679        -0.365675
 H        -2.425459         0.046390         0.392393
 H        -1.984772         0.910699         2.501199
 H        -2.151233         3.660422         1.136740
 H        -0.699511         4.889006         2.706923
 H        -1.048176         3.479799         3.768877
 H         1.562051         4.005079         3.156907
 H         1.044198         2.382317         3.207960
 H        -0.329172         3.222357        -0.442351
