19
Iteration:    26
 O         0.377630         0.483993         0.664558
 C        -0.642758         1.362004         0.679118
 C        -1.956352         0.878365         0.284351
 C        -1.823011         1.689031         1.642734
 C        -1.381261         3.224649         1.567492
 C        -0.528537         3.721020         2.786093
 C         0.913825         3.177609         2.556408
 O         1.061890         2.758362         1.184392
 C        -0.265361         2.869890         0.516663
 H         1.148798         1.003584         0.941988
 H        -2.475875         1.165361        -0.559705
 H        -2.139153        -0.171921         0.573539
 H        -2.135180         1.241352         2.572057
 H        -2.150409         4.019652         1.188911
 H        -0.480045         4.781712         2.791108
 H        -0.921514         3.474189         3.743236
 H         1.608544         4.039824         2.750246
 H         1.025115         2.255449         3.120325
 H        -0.163087         3.341372        -0.469478
