19
Iteration:  1500charge 0 multiplicity 1
 O         0.293984         0.220177         0.504190
 C        -0.556358         1.273432         0.746135
 C        -2.009064         0.938916         0.327004
 C        -1.709610         1.579896         1.691450
 C        -1.326926         3.107604         1.533431
 C        -0.653683         3.816515         2.780405
 C         0.816291         3.295914         2.588826
 O         1.078654         3.147619         1.179117
 C        -0.113867         2.785606         0.595455
 H         1.298335         0.387122         0.713292
 H        -2.408946         1.491662        -0.455945
 H        -2.326645        -0.164559         0.411130
 H        -2.129753         1.086283         2.643398
 H        -2.192761         3.784240         1.101850
 H        -0.611327         4.940548         2.584023
 H        -1.115357         3.698717         3.837722
 H         1.579836         3.985720         2.951499
 H         0.816245         2.278481         3.175502
 H        -0.082695         3.156940        -0.419811
