19
Iteration:  2181charge 0 multiplicity 1
 O         0.433507         0.385910         0.662447
 C        -0.547401         1.315960         0.659004
 C        -1.982564         1.072939         0.257059
 C        -1.628693         1.576308         1.621851
 C        -1.443064         3.117826         1.551464
 C        -0.587440         3.770715         2.803238
 C         0.907186         3.311099         2.578559
 O         0.935956         2.842962         1.200882
 C        -0.305078         2.775330         0.554791
 H         1.205781         0.919562         0.823525
 H        -2.535205         1.685558        -0.475755
 H        -2.379111        -0.105531         0.236633
 H        -1.981160         1.116283         2.600161
 H        -2.322538         3.665095         1.216473
 H        -0.649228         4.815405         2.970101
 H        -0.758308         3.264583         3.753215
 H         1.733873         4.075908         2.626998
 H         1.065758         2.460838         3.257876
 H        -0.099344         3.257056        -0.503130
