19
Iteration:  4109
 O         0.316972         0.186661         0.507644
 C        -0.549651         1.269775         0.646392
 C        -2.075642         1.158549         0.202836
 C        -1.772709         1.540071         1.640207
 C        -1.331343         3.117464         1.612051
 C        -0.598430         3.534517         2.858199
 C         0.867796         3.839067         2.395380
 O         1.080077         2.853952         1.435790
 C        -0.148532         2.678680         0.647988
 H         1.219441         0.603108         0.599625
 H        -2.671577         1.774011        -0.472150
 H        -2.303966         0.068754         0.115086
 H        -2.000067         0.970988         2.537696
 H        -1.991714         3.837900         1.200722
 H        -1.123034         4.344948         3.374947
 H        -0.616274         2.600193         3.469341
 H         1.002908         4.816004         1.889638
 H         1.619141         3.563174         3.150979
 H        -0.036533         3.205242        -0.358291
