19
Iteration:   246charge 0 multiplicity 1
 O         0.205196         0.089493         0.536655
 C        -0.606948         1.194752         0.531254
 C        -2.056441         1.155017         0.271658
 C        -1.547371         1.617936         1.709885
 C        -1.337001         3.100883         1.562060
 C        -0.650132         3.656929         2.888584
 C         0.862764         3.835426         2.474922
 O         1.097247         2.845875         1.361225
 C        -0.119730         2.686330         0.540836
 H         1.064736         0.445734         0.974661
 H        -2.496264         1.878361        -0.389885
 H        -2.658164         0.200855         0.333713
 H        -1.991044         1.088138         2.560958
 H        -2.224545         3.692735         1.101475
 H        -1.176587         4.530744         3.292648
 H        -0.611102         2.785457         3.573267
 H         1.209214         4.886376         2.263422
 H         1.527505         3.393920         3.224476
 H         0.125359         3.251949        -0.419767
