19
Iteration:  1165charge 0 multiplicity 1
 O         0.274611         0.231216         0.641957
 C        -0.574120         1.346295         0.629292
 C        -2.005878         0.997202         0.290561
 C        -1.699292         1.587088         1.697519
 C        -1.358489         3.033100         1.547477
 C        -0.611917         3.736239         2.634099
 C         0.883614         3.329070         2.667690
 O         1.109710         3.059730         1.244979
 C        -0.217603         2.833892         0.519521
 H         1.222368         0.591165         0.828864
 H        -2.769516         1.540967        -0.279705
 H        -2.187370        -0.026584         0.304816
 H        -1.889623         0.936903         2.483369
 H        -2.097356         3.763338         1.272999
 H        -0.613170         4.789172         2.426320
 H        -0.988194         3.557971         3.661887
 H         1.517463         4.173602         3.015607
 H         1.150294         2.420734         3.248042
 H        -0.340356         3.343168        -0.356444
