19
Iteration:  2404
 O         0.275790         0.064268         0.499274
 C        -0.521299         1.211777         0.659147
 C        -2.033320         1.133075         0.367788
 C        -1.643314         1.574177         1.751038
 C        -1.321629         3.045629         1.538967
 C        -0.673600         3.781862         2.773238
 C         0.797020         3.301297         2.616778
 O         1.055951         3.311165         1.129811
 C        -0.064686         2.734851         0.600128
 H         1.133466         0.251813         1.023865
 H        -2.534875         1.836592        -0.375409
 H        -2.408315        -0.013567         0.262502
 H        -2.179803         1.234094         2.718004
 H        -2.097023         3.631067         1.066118
 H        -0.846705         4.861415         2.931714
 H        -1.136950         3.287132         3.614343
 H         1.409558         4.076601         3.086596
 H         1.167217         2.388690         3.037969
 H        -0.131385         3.151388        -0.491165
