19
Iteration:  1144charge 0 multiplicity 1
 O         0.411570         0.314681         0.646185
 C        -0.641456         1.258879         0.524062
 C        -2.043612         0.969684         0.253701
 C        -1.609892         1.590389         1.672400
 C        -1.345557         3.115800         1.593586
 C        -0.599399         3.930420         2.808682
 C         0.834934         3.267176         2.585538
 O         0.987787         2.905067         1.207094
 C        -0.200958         2.792660         0.550244
 H         1.057321         0.800357         1.266482
 H        -2.494552         1.648139        -0.431109
 H        -2.463868         0.038608         0.324829
 H        -1.701795         0.991447         2.532672
 H        -2.249561         3.643455         1.232587
 H        -0.726584         4.987895         2.595417
 H        -0.864349         3.717630         3.887493
 H         1.590278         3.998100         2.883851
 H         0.910281         2.410309         3.240688
 H        -0.026121         3.244385        -0.417396
