19
Iteration:  4089
 O         0.363232         0.183053         0.486338
 C        -0.601390         1.225524         0.591397
 C        -2.017168         1.114635         0.195539
 C        -1.699173         1.673747         1.627935
 C        -1.307708         3.072343         1.649196
 C        -0.608338         3.506906         3.004005
 C         0.778184         3.848294         2.411745
 O         1.064957         2.803828         1.342915
 C        -0.131638         2.712659         0.590770
 H         0.683591         0.203805         1.397010
 H        -2.348846         1.749838        -0.560709
 H        -2.653132         0.241152         0.216247
 H        -2.181988         1.302175         2.488126
 H        -2.108048         3.678959         1.251006
 H        -0.920480         4.522079         3.339189
 H        -0.480003         2.693479         3.802020
 H         0.677829         4.844466         1.785539
 H         1.696450         3.893536         3.135053
 H        -0.014914         3.317269        -0.338186
