19
Iteration:  1061charge 0 multiplicity 1
 O         0.270605         0.103866         0.575931
 C        -0.446675         1.341316         0.550872
 C        -1.908772         1.093311         0.456274
 C        -1.549207         1.654251         1.738461
 C        -1.357961         3.133683         1.516352
 C        -0.673272         3.786376         2.740445
 C         0.721784         3.164186         2.635421
 O         1.023405         3.095143         1.195206
 C        -0.217187         2.844854         0.448973
 H         0.899395         0.186758         1.301605
 H        -2.362860         1.874786        -0.252377
 H        -2.270731         0.050330         0.291015
 H        -1.651826         1.147431         2.677767
 H        -2.281488         3.749783         1.432509
 H        -0.717363         4.938126         2.558210
 H        -1.274679         3.624498         3.634320
 H         1.478746         3.807553         3.149823
 H         0.809649         2.107359         3.061517
 H        -0.006729         3.215088        -0.609765
