19
Iteration:  1373
 O         0.320611         0.178432         0.492406
 C        -0.554700         1.233333         0.748106
 C        -1.985928         1.141053         0.390390
 C        -1.682367         1.599452         1.750329
 C        -1.384035         3.065190         1.538878
 C        -0.658997         3.757075         2.646529
 C         0.808354         3.265257         2.632722
 O         1.052980         3.198847         1.161133
 C        -0.113317         2.693940         0.608491
 H         1.226565         0.439503         0.907706
 H        -2.375917         1.895720        -0.355348
 H        -2.272523         0.017350         0.198399
 H        -2.128832         1.117250         2.709841
 H        -2.015056         3.714783         1.000108
 H        -0.599101         4.834274         2.492404
 H        -1.092200         3.565090         3.611381
 H         1.483883         4.049582         3.084829
 H         0.987041         2.315158         3.157665
 H        -0.190274         3.053351        -0.420254
