19
Iteration:  3967
 O         0.289502         0.212738         0.636159
 C        -0.552556         1.287154         0.558556
 C        -2.091402         1.158799         0.169845
 C        -1.652444         1.553253         1.568564
 C        -1.316660         3.066550         1.661026
 C        -0.544190         3.500861         2.973464
 C         0.841167         3.814097         2.384365
 O         1.033959         2.843053         1.316564
 C        -0.141689         2.748458         0.571135
 H         0.639146         0.219859         1.569183
 H        -2.304829         1.658037        -0.731431
 H        -2.371308         0.112273         0.259415
 H        -2.134561         0.825001         2.299922
 H        -2.031169         3.895234         1.509225
 H        -0.909135         4.467999         3.370862
 H        -0.647943         2.654441         3.764742
 H         0.643480         4.755915         1.980132
 H         1.697717         3.720636         3.052791
 H        -0.111181         3.340664        -0.331256
