19
Iteration:  1221
 O         0.339676         0.095583         0.586787
 C        -0.531755         1.260469         0.691351
 C        -1.988302         1.074980         0.337656
 C        -1.629198         1.629031         1.702074
 C        -1.402708         3.143653         1.550143
 C        -0.633611         3.768251         2.730603
 C         0.846378         3.188916         2.560123
 O         1.014965         3.252412         1.188064
 C        -0.184565         2.778252         0.553002
 H         0.948006        -0.039761         1.286290
 H        -2.315771         1.783477        -0.435567
 H        -2.174474         0.014065         0.099825
 H        -2.067206         1.042158         2.550369
 H        -2.270954         3.743307         1.202762
 H        -0.547283         4.877874         2.580371
 H        -1.013941         3.654905         3.746167
 H         1.480958         3.946524         3.092717
 H         0.994973         2.180382         2.996390
 H        -0.272692         3.212333        -0.388288
