19
Iteration:  1120
 O         0.485513         0.371830         0.535474
 C        -0.566578         1.288323         0.701919
 C        -1.995940         1.104273         0.384430
 C        -1.673396         1.648587         1.720083
 C        -1.371525         3.152777         1.517604
 C        -0.607402         3.813522         2.650787
 C         0.800443         3.187714         2.619172
 O         0.995610         2.853788         1.216752
 C        -0.281309         2.730166         0.579859
 H         1.275615         0.937553         0.851394
 H        -2.430857         1.646148        -0.518829
 H        -2.183068        -0.001088         0.368284
 H        -2.095966         1.197587         2.633728
 H        -2.227357         3.720120         1.244991
 H        -0.592612         4.851544         2.389785
 H        -1.161166         3.650394         3.658276
 H         1.459259         4.002096         2.960310
 H         0.909765         2.325360         3.311491
 H        -0.150799         3.053230        -0.391999
