19
Iteration:   428
 O         0.392041         0.237223         0.688876
 C        -0.616377         1.244411         0.614138
 C        -2.015066         1.020272         0.272043
 C        -1.718026         1.603561         1.645825
 C        -1.341761         3.168540         1.631598
 C        -0.543999         3.774466         2.821091
 C         0.875832         3.229679         2.631968
 O         1.022277         3.019237         1.125367
 C        -0.289767         2.833934         0.487973
 H         1.233294         0.625110         1.062785
 H        -2.334731         1.606605        -0.513459
 H        -2.336733        -0.032243         0.207107
 H        -2.036677         1.037768         2.524182
 H        -2.078685         3.864689         1.161524
 H        -0.455063         4.821932         2.627466
 H        -0.947551         3.699133         3.792706
 H         1.533087         4.138302         2.770527
 H         1.084599         2.363093         3.212659
 H        -0.352909         3.370735        -0.497676
