19
Iteration:   946
 O         0.379163         0.232140         0.693819
 C        -0.588518         1.258931         0.550143
 C        -2.092916         1.034519         0.306133
 C        -1.706799         1.634659         1.642874
 C        -1.317590         3.137635         1.543419
 C        -0.610447         3.716727         2.792894
 C         0.821018         3.229048         2.621772
 O         1.071324         3.164652         1.162347
 C        -0.161638         2.810079         0.490921
 H         0.890478         0.369908         1.581560
 H        -2.638757         1.498911        -0.410827
 H        -2.289011        -0.047358         0.411384
 H        -1.742489         1.112469         2.655122
 H        -2.199078         3.696577         1.217583
 H        -0.568990         4.766096         2.782068
 H        -1.065284         3.371730         3.764847
 H         1.599104         3.878231         3.047242
 H         0.950834         2.223685         3.111237
 H        -0.110247         3.032063        -0.613197
