19
Iteration:  3816charge 0 multiplicity 1
 O         0.342409         0.210655         0.398781
 C        -0.574330         1.279708         0.710201
 C        -1.933990         1.172425         0.183763
 C        -1.807423         1.543400         1.682172
 C        -1.401473         3.110308         1.651665
 C        -0.554156         3.604704         2.909769
 C         0.827319         3.821321         2.302241
 O         1.061587         2.785219         1.437212
 C        -0.138218         2.616965         0.685846
 H         1.158886         0.379363         0.940710
 H        -2.470041         1.854443        -0.373705
 H        -2.225965         0.222920        -0.133955
 H        -2.525447         1.057836         2.416420
 H        -2.124536         3.806673         1.211862
 H        -1.048190         4.478465         3.347785
 H        -0.601420         2.825874         3.703229
 H         0.912168         4.882080         1.931551
 H         1.645587         3.892204         3.113834
 H        -0.045670         2.967024        -0.405619
