19
Iteration:   113charge 0 multiplicity 1
 O         0.269955         0.016849         0.568668
 C        -0.621532         1.117664         0.690856
 C        -2.094583         1.023790         0.224990
 C        -1.601406         1.589029         1.661698
 C        -1.265307         3.103806         1.621240
 C        -0.565980         3.824562         2.764661
 C         0.839292         3.267210         2.582754
 O         1.047755         3.398856         1.173008
 C        -0.146331         2.855059         0.627066
 H         0.744296        -0.174687         1.359856
 H        -2.540056         1.559650        -0.523609
 H        -2.467328         0.032514         0.295425
 H        -1.995123         1.232623         2.662432
 H        -2.116369         3.740465         1.227685
 H        -0.591694         4.833691         2.472573
 H        -0.991443         3.630945         3.709847
 H         1.730228         3.805736         3.098936
 H         0.870101         2.196790         2.787764
 H        -0.104062         3.226701        -0.408985
