19
Iteration:  4633
 O         0.310570         0.307926         0.669756
 C        -0.566523         1.349520         0.681582
 C        -1.959954         1.151641         0.109811
 C        -1.730580         1.545820         1.551185
 C        -1.314494         3.073013         1.692682
 C        -0.546621         3.376636         2.917190
 C         0.811753         3.652884         2.372240
 O         1.064087         2.915313         1.199218
 C        -0.258710         2.797556         0.653814
 H         0.789160         0.337058         1.548887
 H        -2.588145         1.680996        -0.634893
 H        -2.200416         0.018261         0.196681
 H        -1.968974         1.050869         2.464689
 H        -1.900199         3.888452         1.336150
 H        -0.938789         4.258103         3.387823
 H        -0.645191         2.545156         3.678710
 H         1.061816         4.724985         2.227123
 H         1.497910         3.295378         3.041885
 H        -0.170344         3.362792        -0.264981
