19
Iteration:  2099
 O         0.322130         0.080182         0.507592
 C        -0.539490         1.216463         0.640213
 C        -1.925873         1.178761         0.280680
 C        -1.555213         1.532942         1.751674
 C        -1.352894         3.113481         1.666621
 C        -0.666914         3.886998         2.713373
 C         0.789318         3.261259         2.596398
 O         1.012053         3.171593         1.204644
 C        -0.234747         2.754891         0.564666
 H         1.107453         0.308575         1.052637
 H        -2.305838         1.958275        -0.380712
 H        -2.253548         0.221541         0.156200
 H        -1.817948         0.918353         2.664843
 H        -2.325184         3.609225         1.393198
 H        -0.851173         5.018561         2.541489
 H        -1.117911         3.528059         3.661571
 H         1.703948         3.736716         2.967571
 H         0.673881         2.268499         3.061629
 H        -0.179524         3.168386        -0.450132
