19
Iteration:  3144
 O         0.221729         0.042398         0.521115
 C        -0.573481         1.210105         0.696213
 C        -2.014763         1.137313         0.150750
 C        -1.725432         1.584564         1.643505
 C        -1.359430         3.069903         1.583051
 C        -0.548197         3.461374         2.899811
 C         0.812105         3.945667         2.391487
 O         1.122505         2.957999         1.405708
 C        -0.120309         2.745847         0.651291
 H         1.186248         0.157435         0.711493
 H        -2.436653         1.972980        -0.590757
 H        -2.314642         0.097628         0.005846
 H        -2.378653         1.314214         2.545977
 H        -1.961364         3.887124         1.209279
 H        -1.148917         4.182357         3.497351
 H        -0.296396         2.598477         3.385936
 H         0.936220         4.972887         2.086784
 H         1.617364         3.943949         3.190427
 H        -0.207942         3.097239        -0.426607
