19
Iteration:  2632charge 0 multiplicity 1
 O         0.326472         0.309063         0.544015
 C        -0.657064         1.308083         0.636980
 C        -2.078700         1.110774         0.222390
 C        -1.673692         1.529900         1.700332
 C        -1.288579         3.025053         1.580011
 C        -0.641342         3.647555         2.845377
 C         0.840790         3.659400         2.476543
 O         1.065261         2.812999         1.330149
 C        -0.141538         2.734929         0.550620
 H         1.089052         0.623844         1.100450
 H        -2.520497         1.781344        -0.417255
 H        -2.356141         0.032825         0.320079
 H        -1.724813         1.009046         2.632378
 H        -2.093818         3.565795         1.011280
 H        -0.768174         4.719745         3.125315
 H        -0.900349         2.936698         3.659014
 H         1.246824         4.706489         2.245739
 H         1.610166         3.308168         3.196096
 H        -0.022854         3.266369        -0.375562
