19
Iteration:   620charge 0 multiplicity 1
 O         0.316533         0.137345         0.555269
 C        -0.560610         1.284805         0.639073
 C        -2.079395         1.067838         0.413353
 C        -1.675021         1.668462         1.691371
 C        -1.298947         3.149111         1.499189
 C        -0.655153         3.755406         2.823269
 C         0.749292         3.202818         2.585613
 O         1.077498         3.251815         1.186966
 C        -0.074730         2.705295         0.490057
 H         1.065889         0.297389         1.153418
 H        -2.658997         1.534638        -0.497231
 H        -2.169043        -0.057089         0.529721
 H        -1.765062         1.337754         2.703560
 H        -2.152689         3.674608         1.190002
 H        -0.622769         4.882780         2.708176
 H        -1.187075         3.479889         3.798869
 H         1.584795         3.625987         3.061268
 H         0.742580         2.132892         2.912774
 H         0.142402         2.969980        -0.514053
