19
Iteration:  3245charge 0 multiplicity 1
 O         0.353640         0.267823         0.486623
 C        -0.676171         1.222300         0.588447
 C        -2.050332         1.016489         0.226185
 C        -1.831614         1.628969         1.573404
 C        -1.362113         3.080240         1.563443
 C        -0.609132         3.619167         2.908663
 C         0.920285         3.835699         2.430873
 O         1.113093         2.791392         1.441683
 C        -0.106732         2.701081         0.683107
 H         1.153984         0.718111         0.721978
 H        -2.595462         1.653777        -0.472046
 H        -2.218540        -0.143521         0.343337
 H        -2.142237         1.274925         2.538399
 H        -2.147733         3.749051         1.194184
 H        -1.019189         4.475477         3.379091
 H        -0.458804         2.841473         3.633255
 H         1.072388         4.783900         1.963855
 H         1.689136         3.392618         3.158566
 H        -0.062760         3.150527        -0.368142
