19
Iteration:  1083
 O         0.333519         0.200300         0.502723
 C        -0.596481         1.259404         0.652005
 C        -2.044355         0.959907         0.424787
 C        -1.584848         1.674169         1.677496
 C        -1.296182         3.169258         1.477298
 C        -0.616070         3.851167         2.668007
 C         0.701226         3.124687         2.690084
 O         1.059178         3.174606         1.259604
 C        -0.173406         2.799556         0.550034
 H         1.212592         0.476965         0.962356
 H        -2.733981         1.359049        -0.420589
 H        -2.054763        -0.186031         0.597567
 H        -1.837221         1.165393         2.619562
 H        -2.162924         3.783932         1.061895
 H        -0.479853         5.002124         2.681972
 H        -1.013279         3.684643         3.681376
 H         1.620629         3.533813         3.177828
 H         0.721555         2.014818         2.935401
 H        -0.086212         3.217794        -0.543402
