19
Iteration:  1374charge 0 multiplicity 1
 O         0.326231         0.179346         0.485666
 C        -0.557912         1.243783         0.754772
 C        -1.991929         1.134042         0.391123
 C        -1.691662         1.596417         1.743946
 C        -1.378639         3.060389         1.525559
 C        -0.653170         3.761005         2.656356
 C         0.814672         3.267718         2.634316
 O         1.049013         3.198960         1.164367
 C        -0.113976         2.687123         0.613953
 H         1.197370         0.442813         0.911791
 H        -2.368372         1.871683        -0.376604
 H        -2.275103         0.034478         0.213720
 H        -2.112520         1.131060         2.705100
 H        -2.013410         3.741676         0.996777
 H        -0.625818         4.868649         2.488959
 H        -1.116754         3.564957         3.601610
 H         1.523741         4.057940         3.063076
 H         1.011410         2.309498         3.172145
 H        -0.203826         3.020448        -0.388770
