19
Iteration:  4028charge 0 multiplicity 1
 O         0.239476         0.047824         0.577531
 C        -0.557619         1.220567         0.679255
 C        -2.024122         1.214966         0.149330
 C        -1.799391         1.586462         1.567231
 C        -1.184454         3.050993         1.665135
 C        -0.515654         3.474896         2.968154
 C         0.704870         3.890211         2.404735
 O         1.046534         2.970993         1.285891
 C        -0.094769         2.678497         0.665300
 H         1.207572         0.206968         0.624229
 H        -2.279206         1.985860        -0.699375
 H        -2.246962         0.176921        -0.109082
 H        -2.043776         1.117656         2.547699
 H        -1.781250         3.946755         1.241640
 H        -1.060684         4.304975         3.426476
 H        -0.528600         2.730758         3.721811
 H         0.850821         4.919024         2.037817
 H         1.435109         3.837553         3.186044
 H        -0.329078         3.160389        -0.344574
