19
Iteration:  3850
 O         0.311242         0.156411         0.493769
 C        -0.548533         1.215114         0.513258
 C        -2.109827         1.168665         0.165221
 C        -1.698007         1.506414         1.606924
 C        -1.347953         3.036501         1.688396
 C        -0.598183         3.636013         2.924322
 C         0.842279         3.837502         2.390114
 O         1.088599         2.850637         1.450829
 C        -0.119767         2.713001         0.637807
 H         1.131680         0.433927         0.975136
 H        -2.741419         1.879686        -0.306135
 H        -2.332447         0.119736         0.197520
 H        -2.117804         0.911413         2.480341
 H        -2.112078         3.717588         1.346567
 H        -0.975746         4.666852         3.082293
 H        -0.569756         3.121962         3.896571
 H         0.800750         4.867448         1.895359
 H         1.618157         3.602271         3.192544
 H         0.012818         3.293117        -0.353394
