19
Iteration:  1942charge 0 multiplicity 1
 O         0.305402         0.258121         0.561167
 C        -0.532763         1.239612         0.695559
 C        -1.982929         1.017860         0.335756
 C        -1.716720         1.619828         1.727181
 C        -1.315854         3.136528         1.560451
 C        -0.616020         3.654562         2.725914
 C         0.843943         3.320636         2.577561
 O         1.044800         3.197611         1.146217
 C        -0.185797         2.712161         0.587347
 H         1.221492         0.364038         1.011714
 H        -2.348788         1.764065        -0.378130
 H        -2.379663         0.093456         0.257338
 H        -2.095429         1.247266         2.588774
 H        -2.185777         3.664458         1.197477
 H        -0.832571         4.806669         2.901063
 H        -1.111623         3.115353         3.593212
 H         1.559261         4.018075         3.037357
 H         0.942421         2.313611         3.006515
 H        -0.147221         3.014577        -0.424047
