19
Iteration:  2739
 O         0.100521         0.027665         0.504967
 C        -0.546603         1.255257         0.634476
 C        -1.936337         1.189500         0.196045
 C        -1.623439         1.511799         1.657557
 C        -1.298810         3.053590         1.639788
 C        -0.599817         3.544354         2.848416
 C         0.815448         3.911039         2.422987
 O         1.063186         2.967894         1.360918
 C        -0.068543         2.735152         0.643354
 H         0.827060         0.152995         1.196423
 H        -2.309295         1.993244        -0.399061
 H        -2.451590         0.269707        -0.030864
 H        -2.003739         0.735012         2.263103
 H        -2.179930         3.646009         1.356252
 H        -0.999754         4.377929         3.498637
 H        -0.463250         2.629049         3.542765
 H         0.715039         4.882773         2.012092
 H         1.538564         3.819523         3.202092
 H        -0.046381         3.247691        -0.374413
