19
Iteration:  1349charge 0 multiplicity 1
 O         0.282625         0.097175         0.662043
 C        -0.516060         1.310817         0.649168
 C        -1.960505         1.129984         0.328995
 C        -1.488454         1.561492         1.667636
 C        -1.390483         3.079846         1.610686
 C        -0.667216         3.899613         2.740514
 C         0.746394         3.170773         2.593250
 O         1.023629         3.149683         1.162699
 C        -0.190013         2.829776         0.497017
 H         1.178142         0.312731         0.791753
 H        -2.386967         1.869446        -0.389668
 H        -2.262022        -0.005576         0.298891
 H        -1.588327         0.966764         2.624213
 H        -2.241365         3.672054         1.270098
 H        -0.660266         4.948973         2.586477
 H        -1.119063         3.634208         3.726137
 H         1.657461         3.526783         3.055344
 H         0.536605         2.184194         3.010450
 H        -0.268810         3.257729        -0.585531
