19
Iteration:   469
 O         0.381096         0.281104         0.568082
 C        -0.538955         1.336810         0.772300
 C        -2.034650         1.057021         0.458982
 C        -1.702316         1.603364         1.804429
 C        -1.366353         3.122741         1.466571
 C        -0.633712         3.766995         2.703080
 C         0.656704         3.048629         2.617824
 O         1.125370         3.139693         1.094974
 C        -0.081768         2.786417         0.478745
 H         1.213379         0.727111         0.884080
 H        -2.679162         1.804387        -0.090897
 H        -2.335108        -0.003712         0.140180
 H        -1.840757         1.169539         2.830570
 H        -2.304425         3.781859         1.190866
 H        -0.347663         4.862996         2.541080
 H        -1.228633         3.823783         3.641343
 H         1.456740         3.445450         3.212855
 H         0.633680         1.899950         2.639377
 H        -0.103841         3.196998        -0.592774
