19
Iteration:    17
 O         0.369493         0.395989         0.624937
 C        -0.660746         1.398276         0.692872
 C        -1.942991         0.895778         0.258946
 C        -1.775324         1.707180         1.705136
 C        -1.482378         3.279260         1.575365
 C        -0.557089         3.770750         2.737277
 C         0.903063         3.173624         2.615402
 O         1.117734         2.814672         1.169738
 C        -0.291806         2.773029         0.499865
 H         1.101719         0.867448         0.931825
 H        -2.473808         1.370058        -0.600597
 H        -1.896846        -0.200225         0.303710
 H        -1.886094         1.227586         2.706752
 H        -2.337218         4.004582         1.360034
 H        -0.478186         4.869981         2.817904
 H        -0.893633         3.347897         3.698067
 H         1.770255         3.816519         2.934273
 H         1.192656         2.283043         3.250340
 H        -0.063512         3.169160        -0.508255
