19
Iteration:  1656charge 0 multiplicity 1
 O         0.319345         0.078643         0.588907
 C        -0.600687         1.159982         0.717706
 C        -2.065016         0.937269         0.275857
 C        -1.687425         1.632650         1.704176
 C        -1.315016         3.132532         1.586704
 C        -0.581803         3.741955         2.801562
 C         0.844361         3.308594         2.571419
 O         1.087174         3.360884         1.121831
 C        -0.163687         2.821553         0.554054
 H         1.044705         0.190119         1.215914
 H        -2.424322         1.390454        -0.639104
 H        -2.285582        -0.086655         0.240058
 H        -2.247471         1.118825         2.466823
 H        -2.164515         3.857237         1.217075
 H        -0.467612         4.854347         2.731256
 H        -1.166799         3.583091         3.777732
 H         1.438930         3.826051         3.279185
 H         0.852209         2.278844         2.910424
 H        -0.099120         3.249103        -0.481694
