19
Iteration:   196
 O         0.384817         0.380156         0.542082
 C        -0.716814         1.219626         0.630973
 C        -2.151611         0.942896         0.225119
 C        -1.787887         1.590541         1.607268
 C        -1.310558         3.109214         1.605738
 C        -0.499814         3.745410         2.716563
 C         0.968652         3.610307         2.546695
 O         1.133306         2.777754         1.365940
 C        -0.295911         2.711008         0.650050
 H         1.185246         0.987572         0.797660
 H        -2.588225         1.427691        -0.707418
 H        -2.573032        -0.111500         0.425667
 H        -2.083347         1.103360         2.491508
 H        -1.903147         3.892203         1.107923
 H        -0.872989         4.782528         2.919173
 H        -0.806740         3.269404         3.690863
 H         1.470186         4.555573         2.367724
 H         1.610779         3.174455         3.415383
 H        -0.052634         3.333066        -0.192739
