19
Iteration:   331
 O         0.173204         0.160844         0.612299
 C        -0.638163         1.283787         0.593169
 C        -2.070278         1.285637         0.139352
 C        -1.727452         1.503326         1.586068
 C        -1.315849         2.994514         1.739405
 C        -0.542981         3.583031         2.906581
 C         0.764892         3.936396         2.250014
 O         1.211401         2.795361         1.390399
 C        -0.021585         2.633859         0.668696
 H         0.904842         0.322783         1.157576
 H        -2.573959         1.941630        -0.473223
 H        -2.353891         0.216695         0.051281
 H        -2.091440         0.759906         2.337280
 H        -2.035424         3.659336         1.419922
 H        -1.121353         4.339365         3.440878
 H        -0.379277         2.806042         3.631287
 H         0.638895         4.868915         1.657877
 H         1.532744         4.024731         2.970935
 H         0.094362         3.202582        -0.199765
