19
Iteration:  2605charge 0 multiplicity 1
 O         0.357700         0.142986         0.481465
 C        -0.609013         1.273933         0.627255
 C        -2.011180         0.972867         0.280011
 C        -1.799838         1.632664         1.652156
 C        -1.358361         3.107012         1.643460
 C        -0.612783         3.710962         2.810580
 C         0.859490         3.585310         2.581719
 O         1.088665         2.952054         1.237102
 C        -0.157480         2.813091         0.598174
 H         1.256878         0.398350         0.807152
 H        -2.524465         1.490493        -0.649653
 H        -2.324192         0.005198         0.536028
 H        -2.048373         1.119863         2.613412
 H        -2.122311         3.802520         1.251567
 H        -0.830003         4.784063         3.035877
 H        -0.812708         3.058395         3.750556
 H         1.435664         4.508299         2.581576
 H         1.356615         2.877655         3.251796
 H        -0.110499         3.379406        -0.368967
