19
Iteration:  1265
 O         0.472899         0.300030         0.730085
 C        -0.595653         1.264648         0.626323
 C        -2.045364         1.037023         0.247683
 C        -1.665405         1.612749         1.610096
 C        -1.418941         3.161969         1.565693
 C        -0.595792         3.737060         2.765451
 C         0.829072         3.211578         2.577678
 O         1.040606         2.999692         1.165726
 C        -0.257466         2.821076         0.563440
 H         1.250791         0.907538         0.850468
 H        -2.721287         1.531523        -0.404324
 H        -2.449262        -0.020369         0.445055
 H        -1.887524         1.090146         2.615176
 H        -2.183043         3.901337         1.238041
 H        -0.447206         4.843119         2.812676
 H        -1.043618         3.474963         3.710857
 H         1.620292         3.977804         2.827852
 H         1.020479         2.265219         3.148538
 H        -0.229226         3.179854        -0.424458
