19
Iteration:  3177
 O         0.245608         0.086018         0.499325
 C        -0.588296         1.219366         0.620300
 C        -2.002437         1.146209         0.126773
 C        -1.782200         1.560206         1.639549
 C        -1.294545         2.954584         1.650835
 C        -0.589916         3.592641         3.008490
 C         0.833979         3.918417         2.402518
 O         1.128603         2.972082         1.329330
 C        -0.110817         2.665532         0.649154
 H         1.000011         0.125560         1.165902
 H        -2.530534         1.960019        -0.523701
 H        -2.261120         0.122929         0.020423
 H        -2.411724         1.211992         2.481587
 H        -1.971589         3.691894         1.216619
 H        -1.104243         4.558894         3.155730
 H        -0.651060         3.004541         3.863025
 H         0.921631         4.870205         1.955875
 H         1.575147         3.673956         3.175116
 H         0.009206         3.253960        -0.307909
