19
Iteration:  1613
 O         0.406607         0.302449         0.688839
 C        -0.578282         1.311091         0.705731
 C        -1.988158         1.084421         0.292000
 C        -1.568951         1.602280         1.738582
 C        -1.390143         3.128620         1.555892
 C        -0.680425         3.693448         2.736826
 C         0.790626         3.220759         2.523527
 O         1.047437         2.983481         1.128570
 C        -0.231001         2.804693         0.522609
 H         1.011067         0.746869         1.233911
 H        -2.448133         1.870017        -0.342398
 H        -2.423185         0.146752         0.196154
 H        -1.943901         1.139378         2.605684
 H        -2.270204         3.773595         1.233769
 H        -0.669929         4.775987         2.701246
 H        -0.936751         3.409570         3.737602
 H         1.507835         4.012621         2.706274
 H         1.152365         2.304797         3.112610
 H        -0.334850         3.199899        -0.536115
