19
Iteration:  2473charge 0 multiplicity 1
 O         0.471622         0.370718         0.642196
 C        -0.584742         1.290340         0.607274
 C        -2.096692         1.000488         0.365616
 C        -1.665069         1.635062         1.674756
 C        -1.370217         3.178731         1.503009
 C        -0.612121         3.701653         2.732669
 C         0.852623         3.180349         2.661656
 O         1.002017         2.977557         1.156390
 C        -0.228870         2.777862         0.538218
 H         1.122467         1.083008         0.771134
 H        -2.763969         1.580926        -0.303692
 H        -2.395655        -0.045860         0.367303
 H        -1.827788         1.191150         2.639102
 H        -2.209847         3.784651         1.168830
 H        -0.495549         4.802147         2.753369
 H        -1.060274         3.396656         3.754606
 H         1.595820         3.913933         2.792663
 H         1.202441         2.350561         3.291925
 H        -0.134225         3.295836        -0.383407
