19
Iteration:   990charge 0 multiplicity 1
 O         0.327875         0.258569         0.640702
 C        -0.576702         1.255151         0.711318
 C        -1.929135         1.054517         0.234380
 C        -1.752551         1.673180         1.637148
 C        -1.384895         3.164767         1.628841
 C        -0.631824         3.729387         2.861118
 C         0.874510         3.357534         2.532999
 O         1.037529         2.962031         1.156522
 C        -0.171302         2.698332         0.509253
 H         1.157004         0.847341         0.739941
 H        -2.298554         1.605149        -0.531899
 H        -2.147868        -0.042978         0.206872
 H        -2.079074         1.011151         2.525586
 H        -2.118018         3.848880         1.172012
 H        -0.784157         4.765998         3.008873
 H        -0.976949         3.266349         3.833611
 H         1.547073         4.199692         2.735697
 H         1.073675         2.582058         3.273753
 H        -0.208775         3.289524        -0.470658
