19
Iteration:   903charge 0 multiplicity 1
 O         0.404984         0.162949         0.608644
 C        -0.531756         1.256732         0.794386
 C        -1.964695         1.146962         0.342276
 C        -1.745648         1.668122         1.704362
 C        -1.412086         3.135335         1.579375
 C        -0.606531         3.777205         2.664362
 C         0.765859         3.110131         2.614322
 O         1.040467         3.189883         1.146697
 C        -0.149062         2.699177         0.522058
 H         1.304769         0.648138         0.503474
 H        -2.378057         1.870060        -0.185859
 H        -2.286862         0.115422         0.236845
 H        -2.243065         1.119012         2.584283
 H        -2.178685         3.899610         1.345237
 H        -0.563621         4.752872         2.319441
 H        -1.156683         3.692449         3.611070
 H         1.604122         3.590524         3.131999
 H         0.816843         2.019915         2.855206
 H        -0.166824         3.224959        -0.507191
