19
Iteration:  3109charge 0 multiplicity 1
 O         0.265857         0.232645         0.640850
 C        -0.585523         1.297695         0.593765
 C        -2.084155         1.139827         0.115018
 C        -1.689312         1.547187         1.594595
 C        -1.256189         3.055554         1.685916
 C        -0.589162         3.445629         2.962089
 C         0.804317         3.825529         2.326423
 O         1.158636         2.861552         1.342214
 C        -0.146613         2.735296         0.611781
 H         0.704129         0.225621         1.507920
 H        -2.583114         1.792350        -0.661039
 H        -2.462472         0.033803        -0.131480
 H        -2.129790         1.079926         2.523132
 H        -1.907485         3.871084         1.379408
 H        -1.046657         4.376388         3.441536
 H        -0.599937         2.801371         3.829233
 H         0.466980         4.716899         1.797988
 H         1.650801         3.841557         2.976902
 H        -0.167076         3.283957        -0.432977
