19
Iteration:   690
 O         0.465918         0.443902         0.785725
 C        -0.697053         1.255905         0.617898
 C        -2.095217         0.929874         0.159889
 C        -1.753699         1.721148         1.619459
 C        -1.362594         3.145282         1.596245
 C        -0.484554         3.750094         2.800185
 C         0.896116         3.109582         2.563769
 O         1.017706         2.973889         1.187120
 C        -0.265069         2.773832         0.539395
 H         1.087869         1.201918         1.081466
 H        -2.451799         1.220061        -0.867287
 H        -2.351402        -0.106534         0.395119
 H        -1.957865         1.146073         2.561096
 H        -1.975444         3.925581         1.030738
 H        -0.529958         4.916807         2.689724
 H        -0.820962         3.550010         3.809702
 H         1.734298         3.795208         2.932802
 H         1.059529         2.172223         3.125483
 H        -0.240359         3.366805        -0.452460
