19
Iteration:  4590charge 0 multiplicity 1
 O         0.315304         0.173817         0.632292
 C        -0.574924         1.249560         0.672893
 C        -2.045163         1.147580         0.199826
 C        -1.787838         1.651725         1.545508
 C        -1.287258         3.081975         1.664027
 C        -0.584745         3.386274         2.908162
 C         0.842077         3.772163         2.491416
 O         1.080590         3.044644         1.245166
 C        -0.175656         2.666705         0.615131
 H         1.171057         0.521771         0.261788
 H        -2.200386         1.823502        -0.642215
 H        -2.438346         0.080086         0.022373
 H        -2.206693         0.915204         2.239224
 H        -2.057931         3.809888         1.361890
 H        -1.072578         4.055497         3.470114
 H        -0.389075         2.635022         3.661733
 H         1.128109         4.829334         2.210610
 H         1.582514         3.329101         3.166794
 H        -0.340487         3.132290        -0.316475
