19
Iteration:  1726charge 0 multiplicity 1
 O         0.408703         0.314283         0.661323
 C        -0.652771         1.229568         0.514481
 C        -2.137160         0.987019         0.316456
 C        -1.648311         1.555900         1.626564
 C        -1.291007         3.138081         1.577569
 C        -0.537966         3.813902         2.721813
 C         0.896782         3.275563         2.620664
 O         0.988146         3.005509         1.237588
 C        -0.239467         2.778688         0.592955
 H         1.078056         0.845956         1.240269
 H        -2.671435         1.406358        -0.590718
 H        -2.081898        -0.144623         0.262314
 H        -1.898788         1.078948         2.576339
 H        -2.121676         3.730604         1.208437
 H        -0.634514         4.846739         2.525709
 H        -1.036199         3.635757         3.600200
 H         1.507220         4.247281         2.732965
 H         1.260918         2.586915         3.428307
 H        -0.283634         3.401549        -0.381591
