19
Iteration:  4371
 O         0.289695         0.286404         0.544981
 C        -0.611831         1.306678         0.622911
 C        -1.944463         1.092788         0.165380
 C        -1.647605         1.571291         1.584654
 C        -1.313940         3.073852         1.676254
 C        -0.617398         3.519913         2.934331
 C         0.907321         3.739782         2.358551
 O         0.989997         2.828391         1.346463
 C        -0.185965         2.779724         0.612459
 H         0.677446        -0.040107         1.344995
 H        -2.563602         1.694729        -0.573366
 H        -2.230779         0.058459         0.451594
 H        -1.985739         1.038108         2.498056
 H        -2.144374         3.815439         1.410106
 H        -1.053321         4.396512         3.298441
 H        -0.628476         2.643101         3.583237
 H         0.982171         4.793610         2.084401
 H         1.629032         3.550119         3.179494
 H        -0.040405         3.301424        -0.366009
