19
Iteration:   586
 O         0.194548         0.095722         0.473201
 C        -0.517768         1.309454         0.680215
 C        -1.989135         1.072359         0.337071
 C        -1.635306         1.582411         1.704361
 C        -1.348364         3.098752         1.561440
 C        -0.623173         3.829151         2.760799
 C         0.852436         3.393098         2.672265
 O         1.067292         3.079702         1.248762
 C        -0.147246         2.748353         0.502528
 H         0.948161         0.225039         0.960210
 H        -2.612316         1.588548        -0.484827
 H        -2.085405        -0.049118         0.102755
 H        -1.753550         1.037565         2.674543
 H        -2.237321         3.578299         1.259673
 H        -0.650631         4.903631         2.479000
 H        -1.221364         3.782077         3.731573
 H         1.537660         4.187589         2.948791
 H         1.022428         2.477340         3.259965
 H        -0.085799         3.159225        -0.478006
