19
Iteration:  2524
 O         0.411329         0.254689         0.627768
 C        -0.497692         1.352345         0.662597
 C        -1.949825         0.991599         0.347770
 C        -1.658555         1.648216         1.673509
 C        -1.357807         3.208463         1.587512
 C        -0.556965         3.783647         2.759675
 C         0.767931         3.064383         2.532091
 O         0.972852         3.090410         1.226630
 C        -0.365180         2.830090         0.482223
 H         1.306776         0.598005         0.946059
 H        -2.418829         1.354769        -0.581458
 H        -2.172569        -0.219794         0.425026
 H        -1.960466         1.181162         2.663911
 H        -2.201704         3.812137         1.210534
 H        -0.350405         4.841608         2.676397
 H        -0.986459         3.697812         3.695584
 H         1.699605         3.484796         2.996517
 H         0.707066         2.046813         3.005394
 H        -0.206230         3.244621        -0.621400
