19
Iteration:   854charge 0 multiplicity 1
 O         0.337417         0.323749         0.609595
 C        -0.598322         1.366180         0.637457
 C        -1.984350         0.942221         0.355574
 C        -1.661472         1.655818         1.631485
 C        -1.422194         3.157689         1.501937
 C        -0.574880         3.739562         2.726883
 C         0.853999         3.260959         2.576556
 O         1.049353         2.794272         1.258142
 C        -0.231509         2.929452         0.533877
 H         0.996059         0.604547         1.328536
 H        -2.585980         1.378880        -0.564943
 H        -1.990411        -0.151493         0.652486
 H        -1.945718         1.367365         2.619274
 H        -2.241834         3.800136         1.154500
 H        -0.575706         4.912717         2.596864
 H        -1.091814         3.485070         3.666724
 H         1.521818         4.138515         2.749294
 H         1.218852         2.511265         3.280467
 H         0.077981         3.536261        -0.305923
