19
Iteration:   835charge 0 multiplicity 1
 O         0.364135         0.329782         0.530264
 C        -0.586832         1.320771         0.571172
 C        -2.011762         0.933741         0.337723
 C        -1.795467         1.698775         1.694288
 C        -1.284968         3.206850         1.546534
 C        -0.626742         3.796456         2.752733
 C         0.874970         3.389528         2.625537
 O         1.029648         2.808099         1.266663
 C        -0.198334         2.708245         0.566023
 H         1.158162         0.750889         0.931343
 H        -2.567765         1.342388        -0.438317
 H        -2.199131        -0.078530         0.493637
 H        -1.912822         1.223031         2.642172
 H        -1.990361         3.871037         1.044298
 H        -0.731704         4.853931         2.777318
 H        -1.040205         3.325309         3.674858
 H         1.632382         4.224727         2.738684
 H         1.046668         2.634806         3.412961
 H         0.000695         3.090814        -0.527627
