19
Iteration:  3136
 O         0.227690         0.088662         0.558668
 C        -0.521718         1.231623         0.628608
 C        -2.026452         1.187757         0.223996
 C        -1.734129         1.562115         1.652544
 C        -1.329891         3.066072         1.593084
 C        -0.592448         3.448925         2.845757
 C         0.862791         3.930763         2.369238
 O         1.065533         2.952455         1.448118
 C        -0.113481         2.725018         0.579675
 H         1.048780         0.216808         1.062260
 H        -2.365608         1.890845        -0.544993
 H        -2.479480         0.300110        -0.015731
 H        -2.284217         1.096956         2.454339
 H        -2.061897         3.843676         1.241740
 H        -1.151844         3.871891         3.631717
 H        -0.281322         2.485990         3.319978
 H         0.814107         5.009353         1.996374
 H         1.743387         3.809878         3.099328
 H        -0.060856         3.082215        -0.430440
