19
Iteration:  2454charge 0 multiplicity 1
 O         0.338599         0.265447         0.599376
 C        -0.576618         1.325872         0.632273
 C        -1.922566         1.007097         0.284855
 C        -1.615610         1.618546         1.725711
 C        -1.357062         3.097139         1.627189
 C        -0.596312         3.797333         2.795854
 C         0.792855         3.265275         2.510482
 O         1.038909         3.003615         1.176666
 C        -0.271620         2.805110         0.522388
 H         1.069336         0.560545         1.116023
 H        -2.491660         1.550710        -0.487455
 H        -2.144039         0.049328         0.353749
 H        -2.014230         0.996996         2.470169
 H        -2.187361         3.828484         1.411363
 H        -0.819473         4.864847         2.594844
 H        -0.912257         3.644713         3.882166
 H         1.614106         3.771434         3.117772
 H         0.819430         2.218657         2.978977
 H        -0.259115         3.314756        -0.413302
