19
Iteration:  1559charge 0 multiplicity 1
 O         0.372976         0.286917         0.551573
 C        -0.581855         1.331607         0.654225
 C        -1.931469         0.964595         0.411387
 C        -1.709195         1.625751         1.713847
 C        -1.411459         3.158801         1.516837
 C        -0.638271         3.813599         2.691797
 C         0.828403         3.159154         2.607677
 O         1.074121         3.081872         1.184819
 C        -0.228663         2.793336         0.569047
 H         1.021606         0.535708         1.175473
 H        -2.428551         1.283057        -0.581765
 H        -2.095126        -0.044405         0.625591
 H        -1.836122         1.025043         2.551508
 H        -2.178851         3.885451         1.224967
 H        -0.516394         4.857878         2.539734
 H        -1.033118         3.665796         3.646842
 H         1.729671         3.536474         3.136228
 H         0.657311         2.080421         3.059504
 H        -0.253920         3.220569        -0.511604
