19
Iteration:  1986charge 0 multiplicity 1
 O         0.329015         0.245998         0.643203
 C        -0.557873         1.249079         0.655910
 C        -1.995533         1.088471         0.276984
 C        -1.546994         1.514486         1.729401
 C        -1.372035         3.060487         1.572385
 C        -0.514617         3.834148         2.693011
 C         0.735293         3.140112         2.619750
 O         1.011607         3.210460         1.194050
 C        -0.243402         2.780298         0.563140
 H         1.158916         0.830987         0.518285
 H        -2.488381         1.680110        -0.484083
 H        -2.313302         0.074185         0.373803
 H        -1.859626         0.883222         2.491945
 H        -2.229863         3.599879         1.121311
 H        -0.456279         4.969008         2.354478
 H        -0.899770         3.727085         3.750005
 H         1.590804         3.642450         3.117734
 H         0.543519         2.116439         3.018706
 H        -0.402714         3.273076        -0.350458
