19
Iteration:  2940
 O         0.260766         0.168308         0.444454
 C        -0.626411         1.235755         0.604876
 C        -1.997348         1.145847         0.179576
 C        -1.743159         1.601743         1.615361
 C        -1.259336         3.103455         1.705023
 C        -0.567272         3.570906         2.964516
 C         0.805950         3.906675         2.278788
 O         1.066290         2.731761         1.478106
 C        -0.116386         2.712226         0.642097
 H         0.979332         0.365759         1.020721
 H        -2.445239         1.683652        -0.602883
 H        -2.153957         0.079393         0.287052
 H        -2.061898         0.875605         2.468069
 H        -1.978823         3.862475         1.342770
 H        -1.212593         4.438718         3.136140
 H        -0.514188         2.768793         3.842576
 H         0.656585         4.924465         1.771494
 H         1.562772         4.064228         3.066905
 H         0.131552         3.301959        -0.341181
