19
Iteration:  3818charge 0 multiplicity 1
 O         0.335348         0.222189         0.398538
 C        -0.558895         1.251887         0.713496
 C        -1.921986         1.180514         0.169208
 C        -1.810741         1.534828         1.693467
 C        -1.397659         3.113244         1.642422
 C        -0.551287         3.617722         2.909709
 C         0.835893         3.834212         2.319256
 O         1.058866         2.772963         1.432777
 C        -0.149748         2.615399         0.678901
 H         1.126412         0.400268         0.939439
 H        -2.511704         1.904886        -0.412329
 H        -2.270098         0.186382        -0.111587
 H        -2.504579         1.051451         2.443564
 H        -2.098734         3.767134         1.176982
 H        -1.064917         4.445777         3.412490
 H        -0.566342         2.904072         3.684459
 H         0.876544         4.870761         1.968855
 H         1.624919         3.885517         3.105172
 H        -0.112699         2.974307        -0.390249
