19
Iteration:   282charge 0 multiplicity 1
 O         0.093670         0.066392         0.379263
 C        -0.630168         1.166676         0.717721
 C        -1.936401         1.125945         0.176567
 C        -1.781633         1.568860         1.672245
 C        -1.332373         3.011184         1.669801
 C        -0.578077         3.604389         2.893608
 C         0.860863         3.982662         2.330019
 O         1.229458         2.939811         1.391535
 C        -0.069709         2.664604         0.744451
 H         0.815696        -0.126490         1.069917
 H        -2.217650         1.850352        -0.669753
 H        -2.386583         0.116732         0.130009
 H        -2.395676         1.211538         2.456085
 H        -1.931050         3.839022         1.084326
 H        -1.160767         4.417993         3.381094
 H        -0.534293         2.895429         3.761686
 H         0.804931         5.018877         1.760669
 H         1.673113         4.084341         3.154956
 H        -0.076322         3.187227        -0.280481
