19
Iteration:  2220charge 0 multiplicity 1
 O         0.419580         0.298347         0.565435
 C        -0.590941         1.246194         0.668014
 C        -2.031654         1.029250         0.258425
 C        -1.750114         1.558312         1.615338
 C        -1.454316         3.044633         1.605874
 C        -0.553126         3.783921         2.750036
 C         0.924094         3.316936         2.638687
 O         1.101271         3.076465         1.205166
 C        -0.251765         2.745008         0.580570
 H         1.100605         0.577545         1.139350
 H        -2.644093         1.649950        -0.395880
 H        -2.386498         0.085329         0.328844
 H        -2.223086         1.036502         2.396625
 H        -2.326907         3.691042         1.333983
 H        -0.670376         4.906302         2.478327
 H        -1.066491         3.720032         3.751781
 H         1.630696         4.082866         2.910582
 H         1.204466         2.446641         3.291882
 H        -0.301733         3.214970        -0.341597
