19
Iteration:  1132charge 0 multiplicity 1
 O         0.484765         0.364073         0.584700
 C        -0.582780         1.232310         0.657728
 C        -2.012640         1.009096         0.261993
 C        -1.624345         1.622328         1.734329
 C        -1.356238         3.167123         1.580723
 C        -0.579964         3.875919         2.712235
 C         0.795216         3.278711         2.623639
 O         0.988423         2.840504         1.250013
 C        -0.307704         2.759507         0.460168
 H         1.136615         0.737051         1.119878
 H        -2.510047         1.773068        -0.372364
 H        -2.536765         0.090474         0.291677
 H        -1.924438         1.085463         2.610133
 H        -2.150437         3.792366         1.201204
 H        -0.523402         4.933112         2.712936
 H        -1.098476         3.573141         3.711627
 H         1.725853         3.809051         2.815662
 H         0.811001         2.365138         3.230427
 H        -0.325858         3.324128        -0.418617
