19
Iteration:  3376
 O         0.277485         0.243808         0.603636
 C        -0.612158         1.246669         0.596332
 C        -2.098540         1.139745         0.161645
 C        -1.770238         1.546872         1.592193
 C        -1.326062         3.030458         1.629135
 C        -0.527188         3.519570         2.868659
 C         0.850959         3.880125         2.375931
 O         1.082770         2.840034         1.433383
 C        -0.111917         2.681185         0.621278
 H         1.148511         0.579922         0.959600
 H        -2.384958         1.954216        -0.558747
 H        -2.637628         0.147093        -0.045717
 H        -1.984392         1.029028         2.541124
 H        -2.110704         3.645213         1.230163
 H        -0.987184         4.171983         3.631859
 H        -0.247654         2.658598         3.463283
 H         1.058743         4.844119         1.840939
 H         1.651746         3.981095         3.204301
 H         0.016604         3.201000        -0.363385
