19
Iteration:  2981charge 0 multiplicity 1
 O         0.297616         0.217984         0.462286
 C        -0.567022         1.213751         0.695338
 C        -2.051149         1.189663         0.234019
 C        -1.747118         1.573828         1.599179
 C        -1.280801         2.995402         1.621611
 C        -0.634315         3.642904         2.884891
 C         0.836107         3.815254         2.437643
 O         1.121404         2.820156         1.377792
 C        -0.164894         2.634487         0.629563
 H         1.148444         0.542630         0.926394
 H        -2.430670         2.008944        -0.355842
 H        -2.534632         0.175372         0.068219
 H        -2.145484         0.983849         2.467879
 H        -2.055714         3.731124         1.303171
 H        -1.076312         4.661798         3.046954
 H        -0.667090         2.972599         3.732302
 H         1.020648         4.783347         2.004609
 H         1.689386         3.777081         3.143633
 H        -0.190896         3.054704        -0.371093
