19
Iteration:  4278
 O         0.227180         0.106611         0.665817
 C        -0.637854         1.162725         0.581790
 C        -1.994703         1.210212         0.028974
 C        -1.735277         1.495449         1.643581
 C        -1.221767         3.034468         1.645538
 C        -0.504266         3.481877         3.012724
 C         0.810012         3.952876         2.409844
 O         1.062955         2.947742         1.366047
 C        -0.153714         2.733367         0.642800
 H         0.854208         0.129816        -0.125496
 H        -2.369447         2.032889        -0.516876
 H        -2.577313         0.324902        -0.169366
 H        -2.089367         0.854252         2.486078
 H        -2.027927         3.685722         1.361885
 H        -1.072149         4.352996         3.428948
 H        -0.162610         2.588423         3.493663
 H         0.638824         4.975213         1.931642
 H         1.742627         4.064232         2.984555
 H        -0.178388         3.357941        -0.320648
