19
Iteration:  2219
 O         0.422300         0.308333         0.568652
 C        -0.595087         1.242567         0.665575
 C        -2.037563         1.027411         0.258578
 C        -1.750801         1.560600         1.604949
 C        -1.466672         3.034314         1.607715
 C        -0.555467         3.782027         2.751450
 C         0.928906         3.320950         2.648788
 O         1.105817         3.069246         1.194691
 C        -0.249625         2.742584         0.586009
 H         1.106392         0.588689         1.141795
 H        -2.638280         1.668540        -0.429457
 H        -2.365340         0.104302         0.360306
 H        -2.215669         1.066599         2.397217
 H        -2.326557         3.683674         1.348123
 H        -0.653246         4.919742         2.460734
 H        -1.041323         3.730162         3.750640
 H         1.653664         4.096909         2.909935
 H         1.207989         2.453983         3.321089
 H        -0.306085         3.219080        -0.324191
