19
Iteration:  1421
 O         0.323276         0.249112         0.612283
 C        -0.564200         1.300950         0.579814
 C        -1.972672         1.041443         0.343076
 C        -1.684388         1.623115         1.677033
 C        -1.342768         3.088250         1.566620
 C        -0.692763         3.734374         2.772257
 C         0.909148         3.412110         2.539968
 O         1.038044         2.885657         1.235255
 C        -0.223462         2.838097         0.541976
 H         1.184053         0.447592         0.889657
 H        -2.698425         1.484867        -0.338294
 H        -2.108388         0.017122         0.373906
 H        -1.731002         1.123137         2.574446
 H        -2.214148         3.707183         1.112674
 H        -0.734232         4.886013         2.727079
 H        -1.120840         3.420466         3.763858
 H         1.534675         4.323541         2.730433
 H         1.244508         2.645668         3.326581
 H        -0.136472         3.423214        -0.341339
