19
Iteration:  1683
 O         0.264822         0.125728         0.576036
 C        -0.457315         1.258374         0.760101
 C        -1.882684         1.138281         0.348248
 C        -1.698639         1.670197         1.761285
 C        -1.377092         3.109246         1.494358
 C        -0.658398         3.673156         2.752533
 C         0.860903         3.310636         2.505461
 O         0.955169         3.216345         1.140706
 C        -0.171360         2.680237         0.635425
 H         1.171388         0.293523         0.801411
 H        -2.359595         1.821060        -0.423584
 H        -2.193235         0.018644         0.147673
 H        -2.169539         1.130648         2.604677
 H        -2.018307         3.763522         0.967879
 H        -0.596994         4.758922         2.761360
 H        -1.103377         3.373948         3.682025
 H         1.564903         4.079623         2.980863
 H         1.049014         2.292847         2.994185
 H        -0.103721         3.017357        -0.441459
