19
Iteration:  2804
 O         0.367198         0.295104         0.667667
 C        -0.584518         1.286699         0.619377
 C        -1.985943         1.190273         0.243138
 C        -1.810462         1.609543         1.655043
 C        -1.363440         3.094797         1.637105
 C        -0.586232         3.404791         2.876103
 C         0.857746         3.717096         2.420154
 O         1.047047         2.767065         1.272376
 C        -0.138382         2.762607         0.561029
 H         1.166771         0.722838         0.970453
 H        -2.426890         1.860267        -0.548251
 H        -2.233554         0.154228         0.155735
 H        -2.323439         1.133038         2.433548
 H        -2.027930         3.879537         1.217208
 H        -1.026214         4.285011         3.429424
 H        -0.803485         2.497703         3.527901
 H         0.708451         4.749814         1.817925
 H         1.833221         3.685403         2.903345
 H        -0.009161         3.336068        -0.451864
