19
Iteration:  2198charge 0 multiplicity 1
 O         0.458778         0.444146         0.658379
 C        -0.658145         1.283376         0.613208
 C        -2.022451         0.996750         0.171868
 C        -1.813695         1.542049         1.686499
 C        -1.320689         3.071162         1.679012
 C        -0.540533         3.752511         2.754080
 C         0.878564         3.350474         2.594892
 O         1.049402         2.873053         1.184976
 C        -0.263139         2.758125         0.592881
 H         1.173173         1.128578         0.876931
 H        -2.523676         1.596123        -0.623677
 H        -2.285620         0.041708         0.101946
 H        -2.101917         0.878510         2.438323
 H        -2.099162         3.773879         1.290836
 H        -0.712484         4.857449         2.493344
 H        -1.027044         3.724872         3.767016
 H         1.534036         4.181250         2.783834
 H         1.258160         2.521618         3.225196
 H        -0.313273         3.261880        -0.322705
