19
Iteration:  2815charge 0 multiplicity 1
 O         0.336960         0.345548         0.697808
 C        -0.577369         1.334116         0.577206
 C        -2.024661         1.110046         0.219784
 C        -1.760544         1.632081         1.610740
 C        -1.323695         3.092232         1.613204
 C        -0.578531         3.406819         2.950062
 C         0.788751         3.649508         2.329002
 O         1.112833         2.792122         1.293968
 C        -0.165920         2.727419         0.560533
 H         1.061562         0.751811         1.144428
 H        -2.488648         1.780982        -0.559993
 H        -2.463882         0.153068         0.198851
 H        -2.148276         1.111537         2.419853
 H        -2.010770         3.928392         1.333605
 H        -0.929883         4.390158         3.356532
 H        -0.534926         2.639409         3.780766
 H         0.818120         4.806661         2.024348
 H         1.475292         3.585890         3.171042
 H        -0.118794         3.310999        -0.430879
