19
Iteration:  3656charge 0 multiplicity 1
 O         0.354727         0.246620         0.592578
 C        -0.608343         1.275502         0.624966
 C        -2.049029         1.108741         0.179974
 C        -1.795894         1.606201         1.521210
 C        -1.312370         3.096193         1.605057
 C        -0.553264         3.494451         2.902887
 C         0.821585         3.805860         2.382452
 O         1.057950         2.849447         1.396550
 C        -0.122548         2.685494         0.614936
 H         1.005813         0.641234         1.226449
 H        -2.712312         1.786978        -0.538379
 H        -2.302773         0.064731         0.373768
 H        -1.986863         1.027240         2.505462
 H        -2.084245         3.825501         1.193375
 H        -1.051104         4.121670         3.679999
 H        -0.564748         2.632827         3.583485
 H         1.186089         4.766737         2.032861
 H         1.535603         3.591725         3.109939
 H        -0.039941         3.228106        -0.340219
