19
Iteration:   568
 O         0.318474         0.157329         0.485820
 C        -0.584607         1.189065         0.593038
 C        -2.005882         1.174840         0.280082
 C        -1.565970         1.540064         1.749357
 C        -1.333886         3.079726         1.659518
 C        -0.640625         3.911549         2.703076
 C         0.765222         3.427139         2.559223
 O         1.064655         2.970716         1.253869
 C        -0.157705         2.679849         0.657061
 H         1.111911         0.459825         0.798971
 H        -2.413533         1.941381        -0.440022
 H        -2.746314         0.386159         0.356042
 H        -2.055239         1.004690         2.510034
 H        -2.167614         3.605312         1.071978
 H        -0.862870         5.046046         2.696881
 H        -0.878574         3.599430         3.737386
 H         1.511045         4.197698         2.692475
 H         0.860784         2.598254         3.312229
 H        -0.053877         3.176980        -0.357225
