19
Iteration:  3288
 O         0.287090         0.151023         0.567840
 C        -0.506535         1.282137         0.592294
 C        -2.101511         1.184468         0.230161
 C        -1.644739         1.518582         1.638147
 C        -1.355188         3.117733         1.682478
 C        -0.706965         3.623961         2.955293
 C         0.846744         3.729081         2.449689
 O         1.112398         2.841720         1.267257
 C        -0.091392         2.726982         0.539240
 H         0.998594         0.354207         1.198580
 H        -2.554550         1.917590        -0.447074
 H        -2.227627         0.037279        -0.033973
 H        -2.101464         0.954383         2.429667
 H        -2.179384         3.682880         1.301091
 H        -1.110580         4.593881         3.104500
 H        -0.763705         2.864533         3.663654
 H         0.872487         4.795284         2.104770
 H         1.524393         3.583872         3.406141
 H         0.018460         3.226179        -0.504015
