19
Iteration:  2927
 O         0.179153         0.149084         0.484660
 C        -0.594525         1.325847         0.532755
 C        -2.003788         1.044636         0.106097
 C        -1.705976         1.628167         1.660719
 C        -1.280699         3.030582         1.684139
 C        -0.563556         3.632686         2.977324
 C         0.761980         3.871771         2.391055
 O         1.078168         2.822685         1.433273
 C        -0.053323         2.684772         0.647803
 H         1.017112         0.286649         1.059337
 H        -2.503437         1.523928        -0.676780
 H        -2.297717        -0.058937        -0.015051
 H        -1.998015         1.042042         2.566274
 H        -2.059145         3.770369         1.359672
 H        -0.783597         4.561385         3.594301
 H        -0.491228         2.911072         3.880749
 H         0.687359         4.667341         1.613205
 H         1.726668         3.949678         2.934595
 H         0.008940         3.266282        -0.366234
