19
Iteration:  4054
 O         0.217225         0.160073         0.581379
 C        -0.565095         1.243971         0.593213
 C        -1.999841         1.154153         0.061368
 C        -1.777679         1.464500         1.652629
 C        -1.449790         2.970448         1.664895
 C        -0.508095         3.547430         2.919934
 C         0.865644         3.940869         2.405925
 O         1.158384         2.917028         1.354035
 C        -0.098507         2.742184         0.607646
 H         0.767767         0.084192         1.380469
 H        -2.333803         2.059858        -0.475084
 H        -2.508761         0.169335        -0.111629
 H        -2.136592         1.099915         2.667805
 H        -2.241575         3.579073         1.340931
 H        -0.990143         4.247504         3.589217
 H        -0.546810         2.710383         3.693055
 H         1.051354         5.043561         1.913717
 H         1.662493         3.811849         3.187199
 H        -0.180732         3.288010        -0.389617
