19
Iteration:  2439charge 0 multiplicity 1
 O         0.297433         0.197273         0.552593
 C        -0.549429         1.283566         0.695229
 C        -1.945110         1.049054         0.260886
 C        -1.651858         1.507926         1.711098
 C        -1.415272         3.116051         1.639617
 C        -0.586612         3.872778         2.728306
 C         0.833553         3.209583         2.615862
 O         1.025793         3.168594         1.119477
 C        -0.184814         2.802792         0.616685
 H         1.061559         0.097799         1.210580
 H        -2.477414         1.744431        -0.354334
 H        -2.085174        -0.110625         0.023982
 H        -1.919912         1.018371         2.707510
 H        -2.243901         3.564013         1.125856
 H        -0.424750         4.968036         2.642340
 H        -1.040005         3.613113         3.742710
 H         1.606622         3.873608         2.836744
 H         0.824946         2.240381         3.134824
 H        -0.330307         3.143930        -0.408493
