19
Iteration:  4927charge 0 multiplicity 1
 O         0.244488         0.131937         0.584583
 C        -0.535194         1.277697         0.573383
 C        -2.011806         1.094445         0.180531
 C        -1.633444         1.581904         1.601745
 C        -1.309175         3.084767         1.679536
 C        -0.575881         3.447851         2.947655
 C         0.852956         3.780078         2.418485
 O         1.017929         2.929207         1.305855
 C        -0.199575         2.878675         0.568119
 H         0.991081         0.362027         1.177468
 H        -2.620489         1.851571        -0.421162
 H        -2.329722         0.058723        -0.017932
 H        -1.858916         0.958090         2.554904
 H        -2.181596         3.729861         1.300010
 H        -1.198330         4.106165         3.569801
 H        -0.300470         2.470057         3.456793
 H         0.944697         4.767714         2.114359
 H         1.542402         3.614728         3.355296
 H        -0.093483         3.452579        -0.340333
