19
Iteration:    54
 O         0.487143         0.390010         0.752784
 C        -0.613661         1.218376         0.544811
 C        -2.137487         1.066217         0.337744
 C        -1.801517         1.680661         1.671574
 C        -1.369151         3.190402         1.511296
 C        -0.543156         3.630350         2.784847
 C         0.935332         3.209787         2.610406
 O         1.075333         3.000211         1.155970
 C        -0.255139         2.728856         0.470582
 H         1.222905         1.092773         1.025224
 H        -2.755536         1.625053        -0.492518
 H        -2.551789         0.035084         0.417972
 H        -1.948233         1.217382         2.639478
 H        -2.091268         3.877948         1.194285
 H        -0.608886         4.753967         2.943167
 H        -1.056333         3.233346         3.711572
 H         1.532364         4.035677         2.939946
 H         1.018616         2.240347         3.118324
 H        -0.188980         3.050289        -0.583867
