19
Iteration:  2142charge 0 multiplicity 1
 O         0.293830         0.240540         0.500685
 C        -0.586008         1.311868         0.680927
 C        -2.091985         0.960049         0.396453
 C        -1.655480         1.615956         1.714295
 C        -1.378669         3.100947         1.456973
 C        -0.626880         3.697844         2.760356
 C         0.867193         3.298720         2.655519
 O         1.062988         3.228075         1.219841
 C        -0.058998         2.749437         0.545257
 H         1.187232         0.367346         0.989773
 H        -2.623640         1.481757        -0.372029
 H        -2.088268        -0.068545         0.406971
 H        -1.999016         1.104109         2.641755
 H        -2.150023         3.711946         0.930885
 H        -0.863915         4.834353         2.740858
 H        -1.106609         3.160482         3.586788
 H         1.621709         3.905213         3.166585
 H         0.892966         2.228817         2.927197
 H        -0.059189         3.070800        -0.436248
