19
Iteration:  1989charge 0 multiplicity 1
 O         0.344908         0.270186         0.645834
 C        -0.579092         1.265651         0.677214
 C        -2.024119         1.104910         0.267817
 C        -1.539798         1.510975         1.719705
 C        -1.355341         3.064649         1.577235
 C        -0.548291         3.823090         2.699564
 C         0.746714         3.121275         2.606476
 O         1.033277         3.196065         1.201534
 C        -0.227406         2.775637         0.537104
 H         1.187472         0.828768         0.574324
 H        -2.605742         1.609868        -0.439915
 H        -2.339020        -0.028018         0.397283
 H        -1.873224         0.857002         2.651716
 H        -2.266649         3.507507         1.034204
 H        -0.490958         4.925007         2.373492
 H        -0.962265         3.759588         3.717919
 H         1.588750         3.672548         3.070330
 H         0.611867         2.160262         3.084588
 H        -0.419802         3.359100        -0.409303
