19
Iteration:  3058charge 0 multiplicity 1
 O         0.353633         0.210448         0.575346
 C        -0.583147         1.218890         0.687114
 C        -2.021512         1.153778         0.203781
 C        -1.773170         1.631681         1.637683
 C        -1.383372         3.070643         1.567266
 C        -0.617332         3.527201         2.948840
 C         0.847331         3.752215         2.477009
 O         1.095483         2.847591         1.253461
 C        -0.123176         2.724781         0.596634
 H         1.129221         0.762972         0.654264
 H        -2.355200         1.861288        -0.598772
 H        -2.586245         0.191552         0.289739
 H        -2.199801         1.046267         2.549333
 H        -2.121064         3.792428         1.126224
 H        -0.973713         4.467758         3.404002
 H        -0.633752         2.754916         3.751195
 H         0.934223         4.798210         2.073752
 H         1.743831         3.377020         3.095309
 H        -0.119099         3.157562        -0.391541
