19
Iteration:  2694
 O         0.217728         0.153361         0.399361
 C        -0.613446         1.235733         0.594909
 C        -1.996509         1.134371         0.183069
 C        -1.813996         1.570522         1.657648
 C        -1.354453         2.987555         1.640125
 C        -0.590071         3.606407         2.925987
 C         0.874905         3.953851         2.328813
 O         1.210951         2.851221         1.461081
 C        -0.117050         2.662461         0.746412
 H         1.031417         0.281958         0.991014
 H        -2.576034         1.523865        -0.661502
 H        -2.242014        -0.009563         0.113444
 H        -2.393073         1.126470         2.536892
 H        -2.009502         3.763672         1.202853
 H        -1.011387         4.559019         3.391936
 H        -0.486878         2.827092         3.785082
 H         0.613997         4.838162         1.795646
 H         1.694459         4.068321         3.026958
 H         0.000385         3.225020        -0.238064
