19
Iteration:   955charge 0 multiplicity 1
 O         0.407674         0.252451         0.728012
 C        -0.598685         1.318890         0.532894
 C        -2.133185         1.076960         0.359330
 C        -1.679151         1.636915         1.644243
 C        -1.376884         3.075981         1.492777
 C        -0.622505         3.678922         2.770122
 C         0.839073         3.227051         2.597196
 O         1.076287         3.125691         1.199088
 C        -0.142437         2.750351         0.476787
 H         0.927870         0.425912         1.637718
 H        -2.654692         1.682660        -0.457584
 H        -2.466326         0.031059         0.392928
 H        -1.722256         1.024583         2.563606
 H        -2.066308         3.829442         1.145700
 H        -0.786014         4.739696         2.664580
 H        -0.954375         3.239431         3.789216
 H         1.469609         4.100341         2.938542
 H         1.286746         2.313370         2.955598
 H        -0.061196         3.485431        -0.317849
