19
Iteration:  1064
 O         0.265813         0.104994         0.562116
 C        -0.436888         1.345958         0.540080
 C        -1.914012         1.063951         0.455395
 C        -1.546353         1.667991         1.731344
 C        -1.359609         3.152054         1.512995
 C        -0.658792         3.805913         2.762330
 C         0.736860         3.142120         2.623636
 O         0.997688         3.107239         1.203509
 C        -0.198308         2.832085         0.447013
 H         0.954055         0.244358         1.338922
 H        -2.380007         1.830234        -0.278809
 H        -2.354805        -0.033129         0.372352
 H        -1.647642         1.143123         2.748324
 H        -2.225818         3.764626         1.385788
 H        -0.676645         4.862109         2.489222
 H        -1.375352         3.639419         3.659316
 H         1.413145         3.812179         3.194455
 H         0.750760         2.124194         3.083085
 H         0.003022         3.198897        -0.493647
