19
Iteration:  3027
 O         0.251686         0.223924         0.541647
 C        -0.622770         1.312124         0.599125
 C        -2.060646         1.044630         0.249055
 C        -1.655087         1.543497         1.660331
 C        -1.313418         3.062066         1.493350
 C        -0.592882         3.550690         2.868545
 C         0.887375         3.738862         2.521761
 O         1.032327         2.927930         1.338631
 C        -0.106095         2.767780         0.575951
 H         0.740539         0.268931         1.419536
 H        -2.525241         1.691584        -0.459063
 H        -2.394532         0.076070         0.307604
 H        -1.985732         1.086247         2.637079
 H        -2.072753         3.704119         0.989337
 H        -0.974376         4.481339         3.273413
 H        -0.647001         2.668874         3.620297
 H         1.262918         4.725015         2.357916
 H         1.721938         3.356329         3.116621
 H         0.039151         3.371810        -0.336355
