19
Iteration:  3563charge 0 multiplicity 1
 O         0.221578         0.145951         0.436537
 C        -0.610059         1.248808         0.560116
 C        -2.006528         1.089919         0.198526
 C        -1.736002         1.608070         1.690569
 C        -1.292003         3.041322         1.594308
 C        -0.644347         3.595877         2.901680
 C         0.806619         3.910915         2.452552
 O         1.145035         2.837938         1.462205
 C        -0.068636         2.691527         0.579888
 H         1.049397         0.108211         1.000620
 H        -2.456382         1.926217        -0.361953
 H        -2.182211        -0.038434        -0.024390
 H        -2.052826         1.056182         2.606090
 H        -2.086183         3.613246         1.123823
 H        -1.109904         4.413582         3.496792
 H        -0.655057         2.817283         3.707104
 H         0.757960         4.912401         2.053017
 H         1.650158         4.031838         3.241577
 H        -0.019311         3.268456        -0.322840
