19
Iteration:   383charge 0 multiplicity 1
 O         0.369658         0.192055         0.602891
 C        -0.595790         1.251775         0.654204
 C        -2.044350         1.109708         0.322042
 C        -1.801391         1.722090         1.639518
 C        -1.342437         3.188088         1.534625
 C        -0.618026         3.537651         2.916731
 C         0.887094         3.538975         2.465528
 O         1.067658         2.917380         1.234118
 C        -0.154775         2.700361         0.520706
 H         1.186676         0.526756         0.921997
 H        -2.493452         1.754262        -0.401740
 H        -2.351111         0.058056         0.257032
 H        -1.936720         1.294757         2.667497
 H        -2.177765         3.902523         1.320704
 H        -0.859732         4.535707         3.209946
 H        -0.941309         2.832405         3.653551
 H         1.121145         4.647578         2.328051
 H         1.566408         3.095754         3.152935
 H         0.073848         3.110283        -0.512442
