19
Iteration:   388charge 0 multiplicity 1
 O         0.336995         0.226388         0.622213
 C        -0.596339         1.289794         0.662405
 C        -2.065915         1.091506         0.333561
 C        -1.781653         1.681011         1.683605
 C        -1.325622         3.136625         1.497058
 C        -0.616397         3.547546         2.866335
 C         0.880717         3.501232         2.515873
 O         1.101978         2.923208         1.222162
 C        -0.176079         2.728432         0.502083
 H         1.218499         0.741364         0.969124
 H        -2.436419         1.820951        -0.458071
 H        -2.349729         0.055100         0.201133
 H        -2.022479         1.233086         2.607448
 H        -2.027661         3.924751         1.257583
 H        -0.947368         4.625401         3.019260
 H        -0.917700         2.777522         3.635233
 H         1.117611         4.601751         2.477330
 H         1.734009         3.044075         3.145195
 H        -0.068689         3.160550        -0.463791
