19
Iteration:  2787charge 0 multiplicity 1
 O         0.360724         0.218788         0.579704
 C        -0.589891         1.254124         0.727708
 C        -2.024918         1.134016         0.146224
 C        -1.799405         1.634307         1.589464
 C        -1.341461         3.105030         1.599284
 C        -0.519788         3.464331         2.898884
 C         0.880867         3.812903         2.355406
 O         1.064696         2.857458         1.357918
 C        -0.234242         2.676823         0.638996
 H         1.114695         0.637398         0.972497
 H        -2.352884         1.790658        -0.652899
 H        -2.537617         0.171174        -0.029911
 H        -2.184135         1.157533         2.511293
 H        -2.063411         3.890073         1.289127
 H        -1.062652         4.189738         3.524327
 H        -0.315432         2.598661         3.558225
 H         1.024191         4.801656         2.069539
 H         1.463671         3.492701         3.233054
 H        -0.196218         3.163448        -0.314303
