19
Iteration:  4837
 O         0.311752         0.241483         0.630287
 C        -0.598690         1.331219         0.480141
 C        -2.032684         1.100140         0.192205
 C        -1.585314         1.552124         1.603701
 C        -1.334021         3.052886         1.659027
 C        -0.584809         3.530243         2.945466
 C         0.863623         3.695877         2.505524
 O         1.024464         2.820416         1.247504
 C        -0.246665         2.824694         0.594590
 H         0.908157         0.633696         1.303870
 H        -2.499336         1.806434        -0.522864
 H        -2.379545         0.046185         0.202848
 H        -1.734225         0.889208         2.370724
 H        -2.178289         3.801032         1.363461
 H        -0.918691         4.529168         3.401936
 H        -0.684979         2.710138         3.639791
 H         1.034749         4.609166         2.034864
 H         1.732929         3.586116         3.310539
 H        -0.288683         3.442302        -0.288672
