19
Iteration:   496charge 0 multiplicity 1
 O         0.351713         0.258061         0.571071
 C        -0.597622         1.286513         0.539462
 C        -2.002999         0.990422         0.477861
 C        -1.577925         1.716141         1.687376
 C        -1.355396         3.219264         1.456905
 C        -0.591987         3.786503         2.770114
 C         0.752606         3.168536         2.616221
 O         0.986551         2.992446         1.269695
 C        -0.180721         2.763789         0.467662
 H         1.169419         0.699214         0.859912
 H        -2.621770         1.391978        -0.308512
 H        -2.233934        -0.015609         0.652378
 H        -1.637107         1.153949         2.612184
 H        -2.178813         3.802305         1.124743
 H        -0.426780         4.838648         2.799728
 H        -1.100393         3.576193         3.702012
 H         1.499469         3.958036         2.954437
 H         0.899608         2.206909         3.025883
 H         0.012706         3.307076        -0.434999
