19
Iteration:   258
 O         0.169919         0.074843         0.491571
 C        -0.619749         1.241100         0.621816
 C        -2.121299         1.153821         0.281789
 C        -1.725515         1.542887         1.616551
 C        -1.250728         3.014636         1.601185
 C        -0.600637         3.645542         2.853639
 C         0.865619         3.870910         2.460932
 O         1.142931         2.958523         1.393745
 C        -0.034166         2.654734         0.588312
 H         0.976781         0.266818         0.853212
 H        -2.704841         1.800812        -0.396046
 H        -2.238526         0.026611         0.118781
 H        -1.969907         1.055886         2.524676
 H        -2.002274         3.799273         1.146902
 H        -1.133346         4.514660         3.272888
 H        -0.652951         2.950186         3.740745
 H         1.081562         4.934273         2.063648
 H         1.554329         3.689604         3.347389
 H         0.069842         3.033932        -0.494356
