19
Iteration:    45
 O         0.509827         0.442646         0.754555
 C        -0.647269         1.268265         0.498725
 C        -2.137450         1.015238         0.345668
 C        -1.808977         1.760011         1.608153
 C        -1.298211         3.128976         1.559977
 C        -0.544361         3.651802         2.753309
 C         0.912585         3.199213         2.616374
 O         1.004984         2.927061         1.167423
 C        -0.252494         2.715171         0.526698
 H         1.142042         1.173658         1.065415
 H        -2.718841         1.391433        -0.461710
 H        -2.298183        -0.061867         0.574419
 H        -2.112281         1.368837         2.537249
 H        -1.994568         3.892224         1.282059
 H        -0.609515         4.737957         2.769144
 H        -0.924921         3.245641         3.682597
 H         1.682128         3.946982         2.740918
 H         1.232893         2.309596         3.155374
 H        -0.171795         3.315868        -0.375387
