19
Iteration:  1731
 O         0.396954         0.353127         0.636583
 C        -0.628863         1.228574         0.568821
 C        -2.094911         0.953504         0.271183
 C        -1.659914         1.558504         1.659400
 C        -1.316978         3.135091         1.545426
 C        -0.504775         3.806822         2.722656
 C         0.902103         3.293012         2.672021
 O         0.991279         2.966395         1.236578
 C        -0.277168         2.795260         0.533958
 H         1.053114         0.850715         1.134570
 H        -2.750773         1.305693        -0.556380
 H        -2.252769        -0.109310         0.383793
 H        -1.826969         1.115786         2.662980
 H        -2.140895         3.859490         1.331367
 H        -0.572385         4.919175         2.432245
 H        -1.108593         3.691185         3.740814
 H         1.509187         4.148626         2.714239
 H         1.162566         2.568826         3.461069
 H        -0.167943         3.384358        -0.329053
