19
Iteration:  1525charge 0 multiplicity 1
 O         0.371986         0.184654         0.616419
 C        -0.537415         1.261221         0.573902
 C        -2.043441         1.156197         0.435184
 C        -1.469401         1.625882         1.767023
 C        -1.351596         3.093520         1.482298
 C        -0.688980         3.731725         2.670252
 C         0.780091         3.134259         2.640757
 O         1.006064         3.201142         1.196801
 C        -0.225424         2.765662         0.488434
 H         1.111726         0.350720         1.288811
 H        -2.436487         1.956254        -0.271287
 H        -2.508271         0.234637         0.488608
 H        -1.530043         0.924203         2.569354
 H        -2.280087         3.614109         1.056875
 H        -0.666854         4.796907         2.489445
 H        -1.252021         3.592794         3.583702
 H         1.513769         3.808101         3.058790
 H         0.680852         2.170117         3.217989
 H        -0.094739         3.262133        -0.560698
