19
Iteration:  2637charge 0 multiplicity 1
 O         0.344471         0.303747         0.542541
 C        -0.619426         1.293181         0.637495
 C        -2.093757         1.111610         0.230011
 C        -1.670659         1.555105         1.711877
 C        -1.285360         3.037777         1.596818
 C        -0.652039         3.661669         2.843696
 C         0.801620         3.655948         2.449220
 O         1.064468         2.758248         1.305130
 C        -0.111602         2.759549         0.572090
 H         1.052232         0.621133         1.153467
 H        -2.541152         1.914061        -0.501623
 H        -2.495206         0.114599         0.263120
 H        -1.657548         0.851776         2.590805
 H        -2.072055         3.707257         1.251594
 H        -1.062756         4.631033         3.136218
 H        -0.678369         2.982336         3.707854
 H         1.034563         4.670744         2.194179
 H         1.546350         3.391663         3.205391
 H         0.054156         3.314396        -0.427954
