19
Iteration:  4817
 O         0.317415         0.297595         0.478378
 C        -0.672218         1.340254         0.612335
 C        -2.064673         1.063302         0.269488
 C        -1.751663         1.518371         1.624072
 C        -1.344904         3.026305         1.630597
 C        -0.554090         3.506308         2.870971
 C         0.882824         3.769284         2.445984
 O         1.078427         2.854954         1.365960
 C        -0.108377         2.769173         0.592730
 H         1.042187         0.393528         1.098788
 H        -2.639790         1.775896        -0.447326
 H        -2.101193        -0.019625         0.083572
 H        -1.981992         0.970571         2.487231
 H        -2.165348         3.733450         1.254820
 H        -1.147614         4.417670         3.179199
 H        -0.561861         2.736941         3.726674
 H         1.139918         4.867424         2.141255
 H         1.538395         3.503392         3.334860
 H         0.049482         3.357619        -0.292353
