19
Iteration:  1820
 O         0.238734         0.199059         0.559153
 C        -0.501561         1.354940         0.640331
 C        -1.937011         0.998006         0.384555
 C        -1.591016         1.601342         1.740205
 C        -1.385344         3.100781         1.537963
 C        -0.663748         3.785613         2.692183
 C         0.773837         3.234132         2.634886
 O         1.072215         3.080589         1.173487
 C        -0.204665         2.840562         0.533230
 H         1.101409         0.252467         0.884076
 H        -2.280028         1.542123        -0.449122
 H        -1.996918        -0.191782         0.383554
 H        -1.782655         1.178923         2.829183
 H        -2.224127         3.803511         1.245865
 H        -0.661062         4.967683         2.581044
 H        -1.214437         3.551077         3.729115
 H         1.637172         3.821359         2.922314
 H         0.876094         2.255373         3.157699
 H        -0.170145         3.463574        -0.340244
