19
Iteration:  2844charge 0 multiplicity 1
 O         0.290980         0.228269         0.664747
 C        -0.601799         1.310537         0.517890
 C        -2.022676         1.016212         0.186574
 C        -1.810227         1.550827         1.573162
 C        -1.350098         3.105640         1.554461
 C        -0.501889         3.503066         2.928304
 C         0.975470         3.765330         2.462448
 O         1.036992         2.920193         1.341597
 C        -0.217464         2.767586         0.589196
 H         1.133212         0.432960         1.108128
 H        -2.458741         1.758765        -0.561580
 H        -2.309679        -0.079448         0.310603
 H        -2.497615         0.923652         2.340774
 H        -2.024176         3.935014         1.305395
 H        -0.902613         4.373469         3.384792
 H        -0.413102         2.672606         3.612642
 H         1.275326         4.760491         2.348610
 H         1.651772         3.448222         3.274471
 H        -0.210785         3.263798        -0.338640
