19
Iteration:   433
 O         0.386628         0.228769         0.668172
 C        -0.588141         1.230148         0.649765
 C        -1.972861         1.010071         0.261768
 C        -1.699781         1.626312         1.666144
 C        -1.314746         3.168789         1.608202
 C        -0.532920         3.772812         2.792449
 C         0.854680         3.217784         2.642939
 O         0.982509         3.035552         1.099973
 C        -0.310527         2.840206         0.519859
 H         1.240931         0.638468         1.032781
 H        -2.360605         1.728396        -0.573796
 H        -2.370740         0.006309         0.322910
 H        -2.149161         1.159811         2.552398
 H        -2.170725         3.761974         1.275929
 H        -0.268216         4.833917         2.449668
 H        -1.104720         3.683584         3.788260
 H         1.632521         3.945272         2.887782
 H         0.950985         2.272046         3.286057
 H        -0.385750         3.444743        -0.377263
