19
Iteration:  4490charge 0 multiplicity 1
 O         0.302828         0.135541         0.469218
 C        -0.505827         1.272818         0.656379
 C        -2.051967         1.194711         0.213328
 C        -1.683609         1.530599         1.619745
 C        -1.281697         3.020711         1.643208
 C        -0.575075         3.512106         2.878884
 C         0.750833         3.934218         2.416944
 O         1.075796         2.895115         1.447549
 C        -0.102733         2.709476         0.714141
 H         0.076713        -0.481971        -0.264369
 H        -2.312219         2.055269        -0.544450
 H        -2.450206         0.223049        -0.076662
 H        -2.429106         1.119356         2.247980
 H        -2.122994         3.656911         1.284802
 H        -1.025368         4.353400         3.369134
 H        -0.437957         2.592024         3.515393
 H         0.766463         4.960735         1.929883
 H         1.562784         3.975311         3.111208
 H        -0.125243         3.053151        -0.305192
