19
Iteration:  3751
 O         0.215731         0.124904         0.550795
 C        -0.534365         1.244540         0.623686
 C        -1.923506         1.140550         0.186899
 C        -1.715431         1.591964         1.638325
 C        -1.294863         3.067143         1.592292
 C        -0.647847         3.484585         2.886464
 C         0.811344         3.776831         2.447102
 O         1.166921         2.928763         1.271612
 C        -0.221516         2.786965         0.658327
 H         0.859780         0.289825         1.279692
 H        -2.482932         1.905367        -0.322243
 H        -2.304859         0.124941         0.206794
 H        -2.329832         0.985949         2.379478
 H        -1.968245         3.818974         1.252201
 H        -1.060240         4.331331         3.425377
 H        -0.721209         2.825443         3.733288
 H         0.935773         4.850070         2.180885
 H         1.639015         3.691187         3.274693
 H        -0.221386         3.296771        -0.339448
