19
Iteration:  3548
 O         0.278630         0.166608         0.407445
 C        -0.554620         1.230093         0.711382
 C        -2.034035         1.137437         0.209951
 C        -1.712896         1.563557         1.615857
 C        -1.298017         3.097352         1.550264
 C        -0.585583         3.564735         2.876044
 C         0.818407         3.892232         2.391470
 O         1.019013         2.822778         1.490400
 C        -0.119830         2.671073         0.712965
 H         1.135980         0.532254         0.711133
 H        -2.378793         1.812879        -0.568924
 H        -2.394619         0.164779         0.218737
 H        -2.191953         1.034213         2.472766
 H        -2.013161         3.934344         1.248196
 H        -1.127741         4.447915         3.273720
 H        -0.419683         2.632312         3.450128
 H         1.008283         4.916785         1.802032
 H         1.500958         3.773056         3.190954
 H         0.103950         3.130185        -0.340610
