19
Iteration:  1667charge 0 multiplicity 1
 O         0.330224         0.031674         0.547326
 C        -0.536256         1.190423         0.760205
 C        -1.978370         1.030699         0.334484
 C        -1.801899         1.667850         1.671047
 C        -1.302590         3.090911         1.578124
 C        -0.596911         3.771701         2.762353
 C         0.828469         3.267768         2.622357
 O         1.043445         3.388413         1.139830
 C        -0.156069         2.738709         0.528080
 H         1.117376         0.250883         0.984243
 H        -2.330958         1.585363        -0.524103
 H        -2.320747         0.033334         0.450248
 H        -2.230693         1.278240         2.600365
 H        -2.168930         3.765428         1.223218
 H        -0.730980         4.874213         2.741372
 H        -0.981471         3.336012         3.726520
 H         1.626730         3.880957         2.977066
 H         0.984440         2.235185         2.911071
 H        -0.268515         3.050035        -0.536293
