19
Iteration:  4404charge 0 multiplicity 1
 O         0.394623         0.218237         0.510317
 C        -0.584605         1.219075         0.647148
 C        -2.095970         1.134331         0.161368
 C        -1.761514         1.545654         1.599737
 C        -1.239309         3.071733         1.701419
 C        -0.662614         3.586176         2.887732
 C         0.886639         3.739935         2.418658
 O         1.085645         2.866893         1.378879
 C        -0.210158         2.694606         0.661979
 H         1.092970         0.852677         0.196443
 H        -2.671622         1.863530        -0.522801
 H        -2.715044         0.202732         0.144602
 H        -1.939339         0.969099         2.529122
 H        -2.050562         3.719489         1.243966
 H        -1.095426         4.510098         3.087764
 H        -0.855273         3.069856         3.833041
 H         1.029780         4.804575         2.107487
 H         1.711232         3.598130         3.168085
 H        -0.026079         3.234560        -0.312726
