19
Iteration:  3475
 O         0.228697         0.128921         0.570578
 C        -0.531252         1.264896         0.608788
 C        -2.037487         1.091945         0.230207
 C        -1.644457         1.581760         1.581500
 C        -1.348962         3.116389         1.579469
 C        -0.586484         3.540590         2.916675
 C         0.813122         3.767855         2.462306
 O         1.052440         2.893299         1.330409
 C        -0.129285         2.796643         0.621684
 H         1.051661         0.369533         1.081887
 H        -2.463489         1.777250        -0.564116
 H        -2.252251         0.071868         0.196687
 H        -2.028264         1.017451         2.477601
 H        -1.979029         3.692148         0.971612
 H        -0.937147         4.502107         3.262965
 H        -0.691258         2.719550         3.609915
 H         0.963835         4.798071         2.254118
 H         1.668609         3.452705         3.170358
 H        -0.106838         3.413968        -0.250755
