19
Iteration:  1126charge 0 multiplicity 1
 O         0.495314         0.375987         0.557097
 C        -0.579869         1.253546         0.703933
 C        -2.000759         1.077335         0.317981
 C        -1.633561         1.613166         1.714923
 C        -1.353597         3.191170         1.566401
 C        -0.566231         3.807422         2.675550
 C         0.784804         3.253028         2.624728
 O         0.993631         2.833695         1.235087
 C        -0.338030         2.726497         0.513393
 H         1.313120         0.764345         1.005765
 H        -2.465769         1.712820        -0.434331
 H        -2.348788         0.013549         0.325320
 H        -2.056360         1.229973         2.666580
 H        -2.249830         3.770799         1.192384
 H        -0.552598         4.942657         2.602346
 H        -1.226958         3.645107         3.492896
 H         1.648941         3.897521         2.887194
 H         0.775186         2.375486         3.311512
 H        -0.259150         3.321782        -0.497920
