19
Iteration:  1647
 O         0.280668         0.154235         0.646780
 C        -0.618296         1.186338         0.644232
 C        -2.027288         0.925814         0.245289
 C        -1.625165         1.554267         1.672308
 C        -1.350266         3.170764         1.563632
 C        -0.592213         3.748939         2.798659
 C         0.852517         3.279840         2.554567
 O         1.078772         3.298204         1.151464
 C        -0.166539         2.854490         0.603616
 H         0.913688         0.205530         1.374236
 H        -2.569647         1.485077        -0.497567
 H        -2.296622        -0.176690         0.406697
 H        -2.017325         1.063966         2.616877
 H        -2.131927         3.832117         1.115240
 H        -0.625036         4.801414         2.586589
 H        -0.977945         3.590534         3.761840
 H         1.642928         3.911652         3.075798
 H         0.999587         2.201960         2.882198
 H        -0.210705         3.308705        -0.454012
