19
Iteration:  3169
 O         0.188184         0.108625         0.508851
 C        -0.574879         1.207504         0.594269
 C        -1.972075         1.142317         0.161198
 C        -1.856784         1.576922         1.619297
 C        -1.262200         2.971340         1.702129
 C        -0.637547         3.605748         3.014790
 C         0.828094         3.864761         2.391425
 O         1.134505         3.020122         1.338869
 C        -0.053444         2.629156         0.641632
 H         1.158999         0.146408         0.812868
 H        -2.269379         1.768017        -0.719063
 H        -2.272308         0.125011         0.256239
 H        -2.242248         0.972052         2.394839
 H        -1.784349         3.845026         1.234351
 H        -1.141776         4.510900         3.120903
 H        -0.646759         2.837215         3.818520
 H         0.826987         4.920607         1.986270
 H         1.803714         3.914125         3.025733
 H        -0.103656         3.018729        -0.353793
