19
Iteration:  3914charge 0 multiplicity 1
 O         0.342710         0.200573         0.433821
 C        -0.621034         1.184676         0.662143
 C        -2.040003         1.061216         0.189767
 C        -1.808803         1.643932         1.660124
 C        -1.283645         3.068418         1.627813
 C        -0.660168         3.583207         2.899097
 C         0.861700         3.790734         2.407100
 O         1.150411         2.883906         1.322179
 C        -0.138868         2.662646         0.688187
 H         1.101357         0.695485         0.884314
 H        -2.477251         1.712556        -0.491942
 H        -2.548611         0.096077         0.169437
 H        -2.222272         1.214293         2.624477
 H        -1.893565         4.026265         1.404783
 H        -1.093781         4.494767         3.325893
 H        -0.803250         2.909380         3.822023
 H         1.054086         4.844558         2.093377
 H         1.541998         3.592660         3.338970
 H        -0.104537         3.209475        -0.251648
