19
Iteration:  4342
 O         0.359479         0.158872         0.536817
 C        -0.602371         1.248625         0.585282
 C        -2.081197         1.185264         0.199441
 C        -1.740954         1.586018         1.598607
 C        -1.335579         3.040307         1.600476
 C        -0.574905         3.448735         2.952036
 C         0.851692         3.839561         2.418157
 O         1.092740         2.969463         1.321320
 C        -0.109976         2.716265         0.619241
 H         0.693638        -0.021002         1.450665
 H        -2.660218         1.803523        -0.415858
 H        -2.459627         0.211072         0.384950
 H        -2.250512         1.088009         2.445707
 H        -2.067511         3.770898         1.258422
 H        -1.036388         4.247180         3.662988
 H        -0.564764         2.498457         3.568873
 H         0.764111         4.888516         2.025914
 H         1.643054         3.618233         3.195567
 H        -0.020554         3.161042        -0.360411
