19
Iteration:  1259charge 0 multiplicity 1
 O         0.405712         0.304088         0.746659
 C        -0.574334         1.267619         0.597747
 C        -2.057364         1.008548         0.264774
 C        -1.679159         1.577664         1.634704
 C        -1.380393         3.148095         1.615759
 C        -0.597378         3.757863         2.749343
 C         0.835484         3.200951         2.565982
 O         1.081233         3.042265         1.171715
 C        -0.264419         2.818348         0.548333
 H         1.098898         0.924275         0.933979
 H        -2.706900         1.577940        -0.466292
 H        -2.237073        -0.037166         0.210296
 H        -1.876060         0.995793         2.492313
 H        -2.159783         3.765601         1.083010
 H        -0.652126         4.867054         2.630711
 H        -0.970977         3.482264         3.769329
 H         1.573650         3.907034         2.917540
 H         1.036925         2.276294         3.096776
 H        -0.135692         3.450412        -0.447540
