19
Iteration:  3884charge 0 multiplicity 1
 O         0.241223         0.174317         0.442551
 C        -0.603820         1.278287         0.630575
 C        -1.978316         1.103841         0.255153
 C        -1.609247         1.594962         1.650739
 C        -1.320235         3.066036         1.574727
 C        -0.620827         3.537562         2.842063
 C         0.801392         3.787603         2.430399
 O         1.022151         2.889725         1.438070
 C        -0.127917         2.731540         0.585524
 H         0.956970         0.126111         1.091480
 H        -2.726724         1.593617        -0.385727
 H        -2.304247         0.032595         0.243760
 H        -1.930669         1.243773         2.609541
 H        -2.024306         3.846955         1.408601
 H        -0.966659         4.509470         3.276665
 H        -0.566375         2.827007         3.632090
 H         1.263445         4.815224         2.174411
 H         1.591008         3.549284         3.209660
 H         0.145814         3.324682        -0.352184
