19
Iteration:  4195
 O         0.232138         0.209671         0.589834
 C        -0.553400         1.299139         0.622582
 C        -2.064815         1.101742         0.256626
 C        -1.690993         1.452789         1.577421
 C        -1.344214         3.081373         1.579365
 C        -0.656645         3.521769         2.901124
 C         0.897819         3.765043         2.467915
 O         1.162359         2.960845         1.286803
 C        -0.112371         2.739281         0.727960
 H         0.413103        -0.209741        -0.244168
 H        -2.361136         1.930277        -0.525573
 H        -2.252705         0.067475        -0.070577
 H        -2.182769         1.063209         2.420015
 H        -2.098389         3.712035         1.018492
 H        -0.983769         4.454505         3.266254
 H        -0.720719         2.964357         3.822958
 H         0.875536         4.909662         2.239107
 H         1.613770         3.605002         3.246199
 H        -0.163748         3.334538        -0.153178
