19
Iteration:  4865charge 0 multiplicity 1
 O         0.379533         0.244696         0.591260
 C        -0.634285         1.300211         0.645258
 C        -1.982430         1.137676         0.163994
 C        -1.763064         1.591079         1.590435
 C        -1.380140         3.027935         1.656877
 C        -0.568690         3.488256         2.913868
 C         0.929024         3.657125         2.483933
 O         1.032990         2.954810         1.246229
 C        -0.230018         2.723156         0.611818
 H         1.209560         0.637253         0.959668
 H        -2.391275         1.835356        -0.527227
 H        -2.464448         0.148702         0.231227
 H        -2.151566         1.031255         2.511710
 H        -2.066714         3.781455         1.409878
 H        -0.882538         4.409943         3.357994
 H        -0.658967         2.681232         3.678317
 H         1.179076         4.711377         2.056141
 H         1.616736         3.422925         3.198152
 H        -0.285830         3.137035        -0.438821
