19
Iteration:  4834charge 0 multiplicity 1
 O         0.297631         0.254096         0.615796
 C        -0.555323         1.336536         0.492027
 C        -2.047314         1.096397         0.178927
 C        -1.604268         1.562386         1.607503
 C        -1.348305         3.037207         1.651159
 C        -0.600738         3.520963         2.928092
 C         0.882748         3.698387         2.488590
 O         1.036605         2.827555         1.280695
 C        -0.245358         2.816574         0.602263
 H         0.861070         0.657531         1.293735
 H        -2.582442         1.730486        -0.450431
 H        -2.423647         0.049775         0.224659
 H        -1.693074         0.852157         2.471606
 H        -2.137971         3.757840         1.430480
 H        -0.874744         4.482043         3.365565
 H        -0.676940         2.741300         3.635823
 H         1.081879         4.704237         2.071966
 H         1.726071         3.572414         3.219492
 H        -0.256716         3.415374        -0.360815
