19
Iteration:  3883charge 0 multiplicity 1
 O         0.232440         0.181356         0.448536
 C        -0.610144         1.275072         0.627162
 C        -1.982426         1.096498         0.245956
 C        -1.598184         1.590971         1.653594
 C        -1.311571         3.071889         1.588127
 C        -0.634736         3.533065         2.835444
 C         0.801028         3.791959         2.424994
 O         1.026264         2.887104         1.440149
 C        -0.125952         2.736932         0.586769
 H         0.952066         0.116358         1.075226
 H        -2.673296         1.605283        -0.375112
 H        -2.280433         0.040884         0.227369
 H        -1.906546         1.222825         2.642173
 H        -2.025710         3.869621         1.400908
 H        -0.987355         4.507843         3.227321
 H        -0.540924         2.813565         3.644646
 H         1.258808         4.823528         2.154979
 H         1.607046         3.508113         3.209971
 H         0.144652         3.331602        -0.342200
