19
Iteration:  1315
 O         0.392357         0.345611         0.608122
 C        -0.575702         1.298890         0.717227
 C        -2.052575         0.956466         0.387838
 C        -1.750087         1.666268         1.630117
 C        -1.411480         3.112730         1.552355
 C        -0.615454         3.724318         2.679841
 C         0.855664         3.148775         2.648878
 O         1.091634         3.088107         1.202829
 C        -0.167583         2.825426         0.471882
 H         1.123347         0.685830         1.089520
 H        -2.567199         1.301662        -0.543716
 H        -2.178638        -0.102357         0.549246
 H        -2.001792         1.224675         2.543680
 H        -2.212620         3.777035         1.148204
 H        -0.628055         4.788136         2.525481
 H        -1.046368         3.556084         3.710556
 H         1.651289         3.714878         3.068420
 H         0.840901         2.148004         3.099850
 H         0.032742         3.279474        -0.594567
