19
Iteration:  1049
 O         0.285462         0.159989         0.593040
 C        -0.540704         1.288681         0.695916
 C        -1.980939         1.169333         0.322325
 C        -1.520382         1.590194         1.744741
 C        -1.380995         3.099725         1.557241
 C        -0.680885         3.755060         2.676115
 C         0.741013         3.240236         2.609545
 O         1.079700         3.095978         1.179277
 C        -0.155091         2.815890         0.516412
 H         0.939558         0.173611         1.282593
 H        -2.621443         1.831831        -0.292534
 H        -2.149269         0.133653         0.199817
 H        -1.728024         1.073614         2.628240
 H        -2.260815         3.512371         1.003748
 H        -0.635744         4.900862         2.717046
 H        -1.015184         3.371799         3.608755
 H         1.574295         3.857033         2.989728
 H         0.743355         2.225170         3.133901
 H        -0.321002         3.419014        -0.468376
