19
Iteration:  3904charge 0 multiplicity 1
 O         0.357841         0.167078         0.422683
 C        -0.611845         1.186041         0.575496
 C        -2.052350         1.071162         0.302620
 C        -1.818893         1.623595         1.675638
 C        -1.300121         3.160495         1.612667
 C        -0.684408         3.591066         2.930914
 C         0.862885         3.816869         2.498328
 O         1.142998         2.854540         1.323770
 C        -0.158060         2.708227         0.638365
 H         1.196458         0.249155         0.946383
 H        -2.257200         1.693739        -0.496315
 H        -2.438248         0.067354         0.098311
 H        -2.171367         1.060585         2.575563
 H        -1.954464         3.835101         0.967752
 H        -1.169018         4.513535         3.269953
 H        -0.655166         2.714385         3.618714
 H         1.055189         4.886507         2.095174
 H         1.794578         3.545606         3.127750
 H        -0.111484         3.289506        -0.321227
