19
Iteration:  3535charge 0 multiplicity 1
 O         0.385550         0.188958         0.451128
 C        -0.607806         1.230567         0.627007
 C        -2.018803         1.201759         0.234300
 C        -1.816182         1.665015         1.627603
 C        -1.363943         3.042132         1.654766
 C        -0.594100         3.566343         2.861258
 C         0.818339         3.904478         2.399475
 O         1.100548         2.714828         1.435339
 C        -0.137452         2.638244         0.669047
 H         1.315745         0.433963         0.667577
 H        -2.357180         1.750046        -0.646254
 H        -2.287711         0.126150         0.049137
 H        -2.170896         1.101805         2.460770
 H        -2.175306         3.687173         1.151969
 H        -1.074179         4.411433         3.389379
 H        -0.601198         2.981806         3.784091
 H         0.926995         4.975379         1.859463
 H         1.571339         3.880565         3.160221
 H        -0.134921         3.292212        -0.303413
