19
Iteration:  4611
 O         0.349961         0.216029         0.637842
 C        -0.639773         1.197424         0.642457
 C        -1.989295         1.116850         0.115177
 C        -1.856328         1.572950         1.586847
 C        -1.373830         3.053861         1.663932
 C        -0.533600         3.438523         2.946109
 C         0.932356         3.713462         2.535231
 O         1.073797         3.025482         1.201317
 C        -0.177847         2.765011         0.586035
 H         0.982896         0.822346         1.059280
 H        -2.437980         1.824986        -0.624241
 H        -2.426362         0.050952         0.017669
 H        -2.325687         1.195469         2.449841
 H        -2.122440         3.770974         1.351663
 H        -0.914604         4.215553         3.548961
 H        -0.546644         2.548432         3.650354
 H         1.056017         4.748127         2.172623
 H         1.790343         3.476284         3.021347
 H        -0.026002         3.279283        -0.351419
