19
Iteration:  4648charge 0 multiplicity 1
 O         0.341515         0.267414         0.665754
 C        -0.602692         1.318004         0.547358
 C        -1.988117         1.077555         0.155410
 C        -1.712515         1.617542         1.629743
 C        -1.382338         3.090073         1.595526
 C        -0.543356         3.411474         2.947515
 C         0.935798         3.686799         2.458866
 O         0.989786         2.888542         1.279797
 C        -0.206509         2.823318         0.552547
 H         0.806277         0.386178         1.498941
 H        -2.375328         1.845179        -0.492282
 H        -2.249125         0.107503        -0.093887
 H        -2.070468         0.893538         2.474508
 H        -2.297199         3.757077         1.409828
 H        -0.955974         4.188130         3.591669
 H        -0.493642         2.476926         3.407982
 H         0.968061         4.780285         2.215978
 H         1.822033         3.496612         3.199398
 H        -0.308930         3.372793        -0.354831
