19
Iteration:  2211charge 0 multiplicity 1
 O         0.444203         0.388422         0.604243
 C        -0.622832         1.238722         0.623783
 C        -2.082571         1.040089         0.223060
 C        -1.773918         1.573655         1.595452
 C        -1.476177         2.994018         1.646709
 C        -0.587685         3.764151         2.743669
 C         0.950427         3.368336         2.710332
 O         1.105386         2.983364         1.118727
 C        -0.227964         2.735206         0.645047
 H         1.108491         0.785224         1.108899
 H        -2.378591         1.566866        -0.653102
 H        -2.334229        -0.065726         0.419321
 H        -2.133040         1.135264         2.534056
 H        -2.305024         3.703246         1.349277
 H        -0.479144         4.762634         2.337044
 H        -0.816802         3.760343         3.865028
 H         1.648531         4.153681         2.833798
 H         1.133172         2.510040         3.350903
 H        -0.237669         3.267702        -0.342568
