19
Iteration:  3210
 O         0.274875         0.191643         0.542301
 C        -0.552140         1.288084         0.596760
 C        -1.975574         1.173037         0.210853
 C        -1.637646         1.583323         1.657894
 C        -1.359059         3.024740         1.570786
 C        -0.610984         3.558874         2.933084
 C         0.843053         3.833376         2.339225
 O         0.998823         2.781029         1.413715
 C        -0.131287         2.730451         0.588989
 H         0.788711         0.369125         1.339070
 H        -2.626720         1.916937        -0.389033
 H        -2.321070         0.203023        -0.013936
 H        -1.934317         1.110841         2.588219
 H        -2.192677         3.584847         1.179553
 H        -1.113358         4.393481         3.451656
 H        -0.480553         2.835896         3.673911
 H         1.083608         4.820691         1.994577
 H         1.597947         3.676839         3.146878
 H         0.051788         3.310456        -0.406323
