19
Iteration:  4335
 O         0.282623         0.196694         0.537940
 C        -0.573987         1.207525         0.648321
 C        -2.106197         1.194583         0.195888
 C        -1.723309         1.581402         1.611061
 C        -1.281429         3.022943         1.614446
 C        -0.585336         3.423014         2.889761
 C         0.837055         3.867299         2.414426
 O         1.117453         3.005067         1.346289
 C        -0.118620         2.684771         0.634304
 H         0.842147         0.084587         1.307395
 H        -2.560274         1.775680        -0.654182
 H        -2.442718         0.139728         0.153261
 H        -2.211444         0.949005         2.311784
 H        -2.047290         3.795172         1.489126
 H        -1.168861         4.090451         3.527190
 H        -0.540753         2.583935         3.559198
 H         0.988183         4.901308         2.029693
 H         1.633602         3.630252         3.069896
 H        -0.117808         3.142147        -0.407397
