19
Iteration:  4540
 O         0.267919         0.122749         0.656358
 C        -0.609360         1.270261         0.479481
 C        -2.026704         1.189522         0.064319
 C        -1.741961         1.550546         1.640484
 C        -1.284426         2.939602         1.672024
 C        -0.552473         3.459983         2.969493
 C         0.815452         3.970643         2.413768
 O         1.109730         2.942845         1.397419
 C        -0.124314         2.760555         0.611846
 H         0.771457        -0.136606        -0.110085
 H        -2.494237         1.861555        -0.619507
 H        -2.589709         0.278466         0.223691
 H        -2.128342         0.817960         2.486787
 H        -2.190181         3.512598         1.394639
 H        -1.157603         4.252866         3.662432
 H        -0.326697         2.746086         3.778471
 H         0.948989         4.998481         2.063770
 H         1.701935         3.758100         3.135139
 H        -0.138928         3.262672        -0.452324
