19
Iteration:  2858
 O         0.254396         0.154259         0.582273
 C        -0.564649         1.239516         0.682836
 C        -1.939473         1.091824         0.167970
 C        -1.828584         1.657419         1.587533
 C        -1.353773         3.049297         1.654359
 C        -0.543722         3.533246         2.915241
 C         0.871903         3.727936         2.452390
 O         1.087646         2.941824         1.262021
 C        -0.173425         2.758464         0.629309
 H         1.088208         0.581858         0.858572
 H        -2.487354         1.574038        -0.707449
 H        -2.163815         0.065638         0.067642
 H        -2.174443         1.241796         2.474237
 H        -2.110975         3.770830         1.311966
 H        -0.990080         4.410525         3.369653
 H        -0.643619         2.798125         3.625456
 H         1.053814         4.773705         2.213424
 H         1.608628         3.351546         3.160665
 H        -0.123923         3.294040        -0.324626
