19
Iteration:  2929
 O         0.192289         0.149392         0.477914
 C        -0.589891         1.320713         0.538010
 C        -2.010007         1.056044         0.106156
 C        -1.713963         1.643123         1.675429
 C        -1.272295         3.037711         1.690933
 C        -0.568410         3.621205         2.978155
 C         0.753621         3.873360         2.377563
 O         1.070023         2.807543         1.436155
 C        -0.049423         2.686584         0.646134
 H         0.985988         0.305192         1.042883
 H        -2.502645         1.471166        -0.723285
 H        -2.253293        -0.008210         0.000255
 H        -2.005120         0.951564         2.577598
 H        -2.025098         3.793355         1.398349
 H        -0.815181         4.572189         3.527629
 H        -0.496588         2.880836         3.938948
 H         0.719034         4.709080         1.564327
 H         1.707985         3.991016         2.933763
 H         0.037546         3.247410        -0.397859
