19
Iteration:   322charge 0 multiplicity 1
 O         0.159240         0.106399         0.590847
 C        -0.604105         1.198553         0.562942
 C        -2.056705         1.310216         0.147027
 C        -1.645356         1.543225         1.634854
 C        -1.232666         2.985137         1.698756
 C        -0.582188         3.545445         2.915305
 C         0.784390         3.976276         2.229303
 O         1.174913         2.799308         1.443296
 C        -0.116758         2.671429         0.684040
 H         0.843252         0.374512         1.164874
 H        -2.286479         2.160848        -0.491610
 H        -2.634905         0.372274        -0.120674
 H        -2.161888         0.952780         2.356807
 H        -2.113509         3.537273         1.409729
 H        -1.167639         4.340252         3.466416
 H        -0.358190         2.717803         3.637798
 H         0.602354         4.738902         1.542072
 H         1.600240         4.342345         2.870646
 H        -0.075011         3.290591        -0.209368
