19
Iteration:  1293
 O         0.496492         0.426072         0.579574
 C        -0.592206         1.218780         0.749635
 C        -1.940776         1.031279         0.388478
 C        -1.816330         1.710188         1.735324
 C        -1.352367         3.188361         1.483089
 C        -0.668094         3.691786         2.741771
 C         0.783319         3.163003         2.528897
 O         1.076448         2.953411         1.167925
 C        -0.242021         2.722737         0.556305
 H         1.212260         1.105104         0.900523
 H        -2.461922         1.632102        -0.439877
 H        -2.162289        -0.009335         0.411603
 H        -2.270291         1.488063         2.625999
 H        -1.863425         4.030376         0.970505
 H        -0.565983         4.719339         2.998064
 H        -1.147322         3.184463         3.634367
 H         1.488762         3.894637         2.826899
 H         0.895264         2.274857         3.146270
 H        -0.197601         2.995012        -0.606818
