19
Iteration:  2661charge 0 multiplicity 1
 O         0.361948         0.209969         0.504980
 C        -0.571121         1.249818         0.536435
 C        -2.039498         1.173819         0.201046
 C        -1.676961         1.594350         1.685352
 C        -1.365830         3.040998         1.604023
 C        -0.587753         3.622669         2.883391
 C         0.887188         3.795731         2.355938
 O         0.992086         2.731188         1.455850
 C        -0.206039         2.722056         0.638472
 H         1.046617         0.587900         1.045491
 H        -2.521478         1.880212        -0.536388
 H        -2.352802         0.067698         0.383211
 H        -2.081182         1.015239         2.631526
 H        -2.147467         3.695484         1.162823
 H        -0.778018         4.641672         3.387887
 H        -0.580905         2.779064         3.717589
 H         0.869541         4.825879         1.918301
 H         1.774221         3.799612         2.983843
 H        -0.025287         3.339597        -0.290306
