19
Iteration:  3453
 O         0.252260         0.175866         0.529055
 C        -0.602465         1.198908         0.612638
 C        -2.010285         1.100973         0.261474
 C        -1.833591         1.624280         1.692337
 C        -1.276324         3.118218         1.576548
 C        -0.629593         3.498703         2.919187
 C         0.801783         3.808696         2.485171
 O         1.163116         2.986681         1.307742
 C        -0.070517         2.641562         0.568147
 H         1.105024         0.593639         0.729973
 H        -2.394164         1.861506        -0.522070
 H        -2.365825         0.138965         0.114265
 H        -2.260384         0.985997         2.510963
 H        -2.066096         3.668319         1.177511
 H        -1.135538         4.410982         3.139383
 H        -0.615727         2.710753         3.645039
 H         1.099644         4.827694         2.215403
 H         1.502490         3.324487         3.246555
 H         0.086720         3.075547        -0.396676
