19
Iteration:  4877charge 0 multiplicity 1
 O         0.327743         0.310661         0.539675
 C        -0.590663         1.202232         0.702145
 C        -2.018493         1.127935         0.193421
 C        -1.862501         1.557872         1.653481
 C        -1.387949         3.090414         1.599455
 C        -0.517337         3.451019         2.824943
 C         0.938975         3.724069         2.518179
 O         1.120734         2.972848         1.214755
 C        -0.223715         2.689562         0.707128
 H         1.114734         0.754661         0.954366
 H        -2.370688         1.698534        -0.596561
 H        -2.242269         0.039205         0.004287
 H        -2.372639         0.914758         2.391564
 H        -2.114832         3.706017         1.165985
 H        -1.012336         4.277189         3.310671
 H        -0.581398         2.625415         3.515090
 H         1.060098         4.871739         2.525696
 H         1.615325         3.313250         3.196147
 H        -0.180409         3.243468        -0.291479
