19
Iteration:  2693
 O         0.216370         0.159448         0.399870
 C        -0.610925         1.237384         0.596777
 C        -1.996012         1.126854         0.184374
 C        -1.808946         1.572040         1.652759
 C        -1.354497         2.988377         1.642754
 C        -0.597550         3.605099         2.929355
 C         0.880282         3.960791         2.323999
 O         1.210027         2.842798         1.464427
 C        -0.125404         2.659635         0.743200
 H         1.032542         0.296317         0.991145
 H        -2.589621         1.535892        -0.689105
 H        -2.229901        -0.025474         0.090833
 H        -2.403677         1.131474         2.554774
 H        -1.986156         3.775574         1.219314
 H        -0.974852         4.537532         3.393927
 H        -0.474631         2.865799         3.770117
 H         0.622991         4.856790         1.818345
 H         1.694134         4.056023         3.039154
 H        -0.004246         3.219733        -0.260830
