19
Iteration:  4411
 O         0.397596         0.215117         0.490833
 C        -0.606592         1.212014         0.669336
 C        -2.098976         1.154024         0.164544
 C        -1.680905         1.613379         1.613591
 C        -1.311714         3.011653         1.637591
 C        -0.631013         3.616014         2.953496
 C         0.842023         3.766970         2.467528
 O         1.055750         2.857345         1.356407
 C        -0.126574         2.673474         0.664146
 H         1.152133         0.604036        -0.026193
 H        -2.579309         1.899207        -0.533054
 H        -2.635680         0.166434         0.324053
 H        -2.135705         0.941827         2.371296
 H        -2.042603         3.681225         1.159746
 H        -1.048243         4.679678         3.138188
 H        -0.779192         3.020995         3.898596
 H         0.933799         4.772290         1.960413
 H         1.637053         3.421492         3.096356
 H        -0.235112         3.171145        -0.347000
