19
Iteration:  3408charge 0 multiplicity 1
 O         0.235194         0.193489         0.609695
 C        -0.521196         1.302904         0.565368
 C        -1.986418         1.129845         0.139861
 C        -1.720661         1.578186         1.600050
 C        -1.314720         3.002967         1.672628
 C        -0.572662         3.600410         2.999203
 C         0.812521         3.761290         2.406540
 O         1.033023         2.854437         1.314731
 C        -0.147978         2.733278         0.579064
 H         0.839108         0.343990         1.345394
 H        -2.426915         1.829339        -0.615494
 H        -2.343450         0.043436         0.091087
 H        -2.100914         1.081406         2.503704
 H        -2.003208         3.757924         1.311993
 H        -0.742592         4.600839         3.478844
 H        -0.402402         2.743543         3.618823
 H         0.834289         4.665938         1.796987
 H         1.736639         3.702239         3.124579
 H        -0.122786         3.248048        -0.365924
