19
Iteration:  3232charge 0 multiplicity 1
 O         0.308186         0.255243         0.525176
 C        -0.606671         1.281045         0.572601
 C        -2.066269         1.037031         0.207454
 C        -1.751773         1.628565         1.625260
 C        -1.297791         3.098633         1.608519
 C        -0.599808         3.561974         2.932097
 C         0.827925         3.769755         2.385836
 O         1.127726         2.774179         1.415599
 C        -0.158024         2.706485         0.643346
 H         1.190206         0.650442         0.844330
 H        -2.603119         1.460207        -0.723043
 H        -2.507948         0.060665         0.343260
 H        -1.899357         0.943119         2.437315
 H        -1.890705         3.860169         1.144733
 H        -0.993457         4.540030         3.236582
 H        -0.840016         2.960861         3.746156
 H         0.844545         4.763844         1.862811
 H         1.581659         3.957720         3.205155
 H         0.122734         3.415939        -0.214534
