19
Iteration:  1070charge 0 multiplicity 1
 O         0.280525         0.139063         0.542078
 C        -0.485823         1.299352         0.561062
 C        -1.954740         0.997342         0.412635
 C        -1.530236         1.685933         1.720504
 C        -1.349100         3.189906         1.525298
 C        -0.644885         3.820828         2.776783
 C         0.746445         3.111978         2.615059
 O         0.958349         3.149501         1.236440
 C        -0.138272         2.791750         0.492812
 H         1.005302         0.271543         1.166516
 H        -2.575253         1.527383        -0.284548
 H        -2.316917         0.044152         0.606446
 H        -1.624796         1.243969         2.659039
 H        -2.224005         3.785118         1.033562
 H        -0.445190         4.895544         2.443635
 H        -1.291018         3.684237         3.582247
 H         1.466602         3.741440         3.142209
 H         0.635864         2.134284         3.120810
 H        -0.023151         3.393017        -0.549269
