19
Iteration:   853charge 0 multiplicity 1
 O         0.337241         0.328118         0.606241
 C        -0.608233         1.357334         0.639645
 C        -1.974041         0.943006         0.359342
 C        -1.664185         1.662557         1.626006
 C        -1.421777         3.157789         1.496592
 C        -0.573490         3.741833         2.728447
 C         0.854006         3.263790         2.571867
 O         1.050258         2.792788         1.265791
 C        -0.229465         2.922077         0.537808
 H         0.965915         0.588285         1.290103
 H        -2.589511         1.390725        -0.578395
 H        -1.958936        -0.176201         0.665402
 H        -1.946767         1.344169         2.642980
 H        -2.235502         3.821311         1.152177
 H        -0.590394         4.926431         2.610904
 H        -1.085053         3.486437         3.655694
 H         1.511586         4.124848         2.738610
 H         1.242547         2.513697         3.263295
 H         0.039405         3.559407        -0.283268
