19
Iteration:   806
 O         0.366232         0.200769         0.496616
 C        -0.566776         1.244971         0.663568
 C        -2.131855         1.154220         0.317432
 C        -1.661223         1.591135         1.707024
 C        -1.304424         3.099767         1.562803
 C        -0.689233         3.756587         2.651285
 C         0.864120         3.433758         2.623254
 O         1.105031         2.982814         1.268152
 C        -0.182565         2.660846         0.643208
 H         1.190896         0.537012         0.740840
 H        -2.457596         2.026489        -0.323944
 H        -2.727994         0.233362         0.311449
 H        -1.874958         1.062721         2.672245
 H        -2.029092         3.633918         0.930302
 H        -0.767140         4.828573         2.508694
 H        -1.131352         3.493451         3.623518
 H         1.485731         4.269708         2.826853
 H         1.095179         2.686139         3.418226
 H        -0.107359         3.089094        -0.336915
