19
Iteration:  2625
 O         0.295207         0.299928         0.541078
 C        -0.638642         1.289583         0.595966
 C        -2.033154         1.065285         0.282894
 C        -1.675014         1.542277         1.662082
 C        -1.325987         3.055214         1.546314
 C        -0.615338         3.628156         2.839615
 C         0.944931         3.663820         2.509410
 O         1.065386         2.884022         1.354248
 C        -0.195610         2.695458         0.576580
 H         1.042364         0.671653         0.982651
 H        -2.714582         1.710881        -0.443098
 H        -2.222612         0.049179         0.140181
 H        -1.971012         1.110462         2.596769
 H        -2.116718         3.556369         1.012455
 H        -0.796120         4.650715         3.060606
 H        -1.020191         3.077458         3.641152
 H         1.302053         4.639156         2.296228
 H         1.511967         3.152764         3.311056
 H        -0.168647         3.253767        -0.443632
