19
Iteration:   899
 O         0.420008         0.209166         0.620560
 C        -0.554796         1.246037         0.782275
 C        -2.036138         1.121178         0.312264
 C        -1.701252         1.642970         1.747115
 C        -1.373707         3.129272         1.555977
 C        -0.617131         3.776564         2.655194
 C         0.770911         3.117788         2.610821
 O         1.040892         3.180966         1.167111
 C        -0.132914         2.706816         0.528065
 H         1.335498         0.554739         0.506546
 H        -2.424495         2.010368        -0.355286
 H        -2.462444         0.148003         0.254370
 H        -2.242188         1.159996         2.487831
 H        -2.171711         3.802867         1.230617
 H        -0.576212         4.891404         2.402464
 H        -1.111140         3.666105         3.674181
 H         1.640879         3.581152         3.154592
 H         0.808914         2.063862         2.862920
 H        -0.277159         3.094413        -0.486209
