19
Iteration:  2769charge 0 multiplicity 1
 O         0.266444         0.151312         0.538868
 C        -0.666863         1.205686         0.602573
 C        -2.016157         1.094110         0.133505
 C        -1.815170         1.582275         1.584967
 C        -1.267847         3.046464         1.665319
 C        -0.562479         3.552592         2.961290
 C         0.889251         3.860558         2.458159
 O         1.112013         2.955858         1.305169
 C        -0.094290         2.686982         0.670979
 H         0.874014         0.400909         1.223331
 H        -2.467106         1.745099        -0.696206
 H        -2.411057        -0.010479         0.129497
 H        -2.445199         0.900214         2.303328
 H        -2.025519         3.798933         1.348084
 H        -0.939342         4.447815         3.404702
 H        -0.549076         2.770830         3.696614
 H         0.779240         4.971681         2.015856
 H         1.772719         3.854313         3.133035
 H        -0.088418         3.152805        -0.351575
