19
Iteration:  2602
 O         0.357143         0.133649         0.472837
 C        -0.604736         1.262120         0.649997
 C        -1.998504         0.983357         0.278984
 C        -1.801947         1.642328         1.654616
 C        -1.344613         3.116401         1.650740
 C        -0.619751         3.717356         2.845639
 C         0.860142         3.566786         2.561526
 O         1.089552         2.969147         1.234910
 C        -0.155693         2.809737         0.585723
 H         1.258370         0.424062         0.831640
 H        -2.527763         1.398489        -0.665104
 H        -2.376031        -0.002383         0.511968
 H        -1.999327         1.168997         2.551339
 H        -2.130751         3.682598         1.168631
 H        -0.745134         4.720700         3.103835
 H        -0.944718         3.193361         3.683594
 H         1.385096         4.485500         2.561914
 H         1.261701         2.798888         3.250496
 H        -0.196795         3.404165        -0.420797
