19
Iteration:  3726
 O         0.346824         0.148536         0.545140
 C        -0.590286         1.190221         0.787648
 C        -1.995067         1.171970         0.102332
 C        -1.871067         1.638635         1.602272
 C        -1.332736         3.011388         1.612909
 C        -0.548437         3.533423         2.903459
 C         0.865342         3.796484         2.457694
 O         1.074559         2.979333         1.297979
 C        -0.199480         2.674088         0.583479
 H         1.186179         0.491002         0.978520
 H        -2.313119         1.883011        -0.594856
 H        -2.576442         0.220651         0.097758
 H        -2.076603         0.962846         2.356919
 H        -2.076589         3.801431         1.347714
 H        -1.029059         4.339792         3.423754
 H        -0.535617         2.912624         3.840171
 H         1.251000         4.845868         2.373030
 H         1.612938         3.445203         3.222682
 H         0.022703         2.949584        -0.502682
