19
Iteration:  2162charge 0 multiplicity 1
 O         0.426462         0.268028         0.593251
 C        -0.585715         1.270075         0.590684
 C        -2.004770         1.046724         0.356827
 C        -1.659033         1.691535         1.710877
 C        -1.314816         3.148255         1.585765
 C        -0.699291         3.647657         2.791722
 C         0.787726         3.274481         2.569703
 O         1.079269         2.999447         1.180347
 C        -0.237609         2.797257         0.481208
 H         1.134168         0.702451         1.101319
 H        -2.553517         1.650991        -0.358163
 H        -2.352167        -0.050889         0.451623
 H        -1.817352         1.094852         2.679737
 H        -2.109301         3.854267         1.337966
 H        -0.691499         4.795685         2.749219
 H        -1.205431         3.229631         3.656522
 H         1.334218         4.232824         2.804212
 H         1.116337         2.418940         3.207343
 H        -0.231134         3.378198        -0.424069
