19
Iteration:  1414
 O         0.336054         0.203132         0.556926
 C        -0.526352         1.291198         0.559850
 C        -1.996339         1.007137         0.335093
 C        -1.720273         1.671205         1.668936
 C        -1.353706         3.136434         1.573410
 C        -0.664488         3.759752         2.792711
 C         0.874738         3.417415         2.578640
 O         1.096299         2.913949         1.192655
 C        -0.241836         2.808853         0.633250
 H         1.108369         0.498758         1.034051
 H        -2.593594         1.328436        -0.509592
 H        -2.125693        -0.108063         0.613827
 H        -1.931292         1.104034         2.641272
 H        -2.257828         3.686294         1.213345
 H        -0.802705         4.804729         2.643321
 H        -1.175990         3.444069         3.741449
 H         1.525435         4.261985         2.629749
 H         1.209561         2.646930         3.268375
 H        -0.183029         3.453040        -0.345485
