19
Iteration:  1728
 O         0.406301         0.332351         0.654050
 C        -0.643604         1.222592         0.533675
 C        -2.122975         0.969840         0.301778
 C        -1.652090         1.550052         1.644972
 C        -1.300471         3.142891         1.561402
 C        -0.519979         3.813130         2.721159
 C         0.900987         3.277448         2.641445
 O         0.986222         2.992493         1.237980
 C        -0.255438         2.786839         0.571160
 H         1.030328         0.826766         1.177289
 H        -2.732426         1.367987        -0.630596
 H        -2.127637        -0.071463         0.299137
 H        -1.854110         1.137503         2.548758
 H        -2.094645         3.760858         1.275369
 H        -0.624006         4.863840         2.483816
 H        -1.074546         3.659170         3.653201
 H         1.485395         4.215074         2.711869
 H         1.230496         2.587649         3.475459
 H        -0.246734         3.397706        -0.343494
