19
Iteration:  1282
 O         0.531343         0.379870         0.631592
 C        -0.552476         1.236159         0.726236
 C        -1.978777         1.053179         0.368678
 C        -1.744969         1.783300         1.701412
 C        -1.334969         3.200870         1.513717
 C        -0.615096         3.684391         2.776566
 C         0.823023         3.194991         2.607893
 O         0.936474         2.924609         1.172048
 C        -0.280477         2.681823         0.452924
 H         1.327647         1.050732         0.659275
 H        -2.248020         1.593492        -0.610390
 H        -2.436350         0.096201         0.392802
 H        -2.237811         1.375213         2.507809
 H        -2.192334         3.798556         1.151244
 H        -0.816319         4.733770         2.813330
 H        -1.059482         3.194140         3.688936
 H         1.583111         3.899802         2.846216
 H         1.060093         2.273198         3.143782
 H        -0.109079         3.196239        -0.586761
