19
Iteration:  2419
 O         0.308562         0.114592         0.496832
 C        -0.530477         1.187652         0.696794
 C        -2.007948         1.143449         0.347595
 C        -1.657605         1.591188         1.733105
 C        -1.301368         3.029057         1.578478
 C        -0.624388         3.688967         2.698698
 C         0.831614         3.319141         2.596166
 O         1.026016         3.348685         1.233471
 C        -0.178146         2.716710         0.537338
 H         0.909819         0.185418         1.231539
 H        -2.445682         1.840766        -0.292589
 H        -2.425127         0.139194         0.295859
 H        -2.198969         1.098898         2.589111
 H        -2.173519         3.638677         1.262170
 H        -0.561120         4.687866         2.203556
 H        -0.997337         3.752675         3.794236
 H         1.589294         3.933748         3.057829
 H         0.839992         2.216664         2.961681
 H        -0.117944         3.086037        -0.418596
