19
Iteration:  1270
 O         0.518944         0.318819         0.706136
 C        -0.611467         1.279719         0.651596
 C        -2.031598         1.028137         0.266296
 C        -1.677008         1.665000         1.629165
 C        -1.415344         3.166169         1.515690
 C        -0.589189         3.717941         2.780043
 C         0.841150         3.219289         2.599868
 O         0.981908         2.962459         1.156652
 C        -0.237323         2.781956         0.564505
 H         1.400712         0.802977         0.768372
 H        -2.625260         1.642908        -0.495374
 H        -2.486594         0.149130         0.586507
 H        -1.937299         1.218559         2.527179
 H        -2.260323         3.908017         1.362832
 H        -0.454010         4.816180         2.847013
 H        -1.108094         3.399798         3.729560
 H         1.576549         3.953820         2.843214
 H         0.987874         2.305718         3.154784
 H        -0.305108         3.102498        -0.585342
