19
Iteration:   825charge 0 multiplicity 1
 O         0.432131         0.281287         0.507020
 C        -0.665826         1.197191         0.620744
 C        -2.110573         1.043822         0.353008
 C        -1.751917         1.641251         1.674280
 C        -1.319075         3.122801         1.502751
 C        -0.594845         3.821072         2.789511
 C         0.828892         3.425103         2.642360
 O         1.086527         2.864194         1.286975
 C        -0.146773         2.729024         0.523641
 H         1.167730         0.863458         0.686635
 H        -2.601966         1.510949        -0.378932
 H        -2.350466         0.064454         0.526812
 H        -2.177048         1.421990         2.630978
 H        -2.098835         3.817591         1.140914
 H        -0.784163         4.827777         2.789124
 H        -1.123043         3.446948         3.691007
 H         1.541456         4.287613         2.727121
 H         1.194143         2.640794         3.335770
 H         0.206713         3.119209        -0.499967
