19
Iteration:  4790charge 0 multiplicity 1
 O         0.356266         0.161208         0.277067
 C        -0.604098         1.188629         0.653491
 C        -2.009724         1.116492         0.271994
 C        -1.732207         1.684395         1.647101
 C        -1.328771         3.093677         1.666551
 C        -0.630555         3.555976         2.982929
 C         0.810590         3.815872         2.384477
 O         1.075586         2.884733         1.422483
 C        -0.136983         2.629069         0.674960
 H         1.235430         0.500427         0.482214
 H        -2.367222         1.796521        -0.445835
 H        -2.447595         0.121164         0.395516
 H        -2.287251         1.140353         2.532457
 H        -2.059831         3.812560         1.218227
 H        -1.154912         4.473886         3.217049
 H        -0.674219         2.816584         3.730750
 H         0.950723         4.817531         2.013102
 H         1.611659         3.685211         3.205528
 H         0.015995         3.179151        -0.288189
