19
Iteration:  1201charge 0 multiplicity 1
 O         0.377261         0.066839         0.499510
 C        -0.526452         1.165105         0.740880
 C        -1.913664         1.154679         0.329237
 C        -1.706473         1.702308         1.723578
 C        -1.243617         3.152898         1.571836
 C        -0.659490         3.783429         2.811340
 C         0.744924         3.263616         2.595386
 O         0.992906         3.234913         1.105809
 C        -0.168123         2.687947         0.539466
 H         1.191367         0.136088         1.132972
 H        -2.515562         1.745335        -0.237727
 H        -2.507916         0.234924         0.623694
 H        -2.192310         1.203000         2.663110
 H        -2.068217         3.715536         0.967548
 H        -1.070455         4.858209         2.821520
 H        -1.057902         3.247026         3.664358
 H         1.511477         3.875198         3.137684
 H         0.693948         2.277932         2.991196
 H        -0.075416         3.064476        -0.567870
