19
Iteration:  2653charge 0 multiplicity 1
 O         0.380221         0.234118         0.537045
 C        -0.581611         1.263675         0.503984
 C        -2.038053         1.168583         0.303858
 C        -1.631488         1.605494         1.619388
 C        -1.367044         3.095087         1.660932
 C        -0.632500         3.578475         2.894697
 C         0.851340         3.772624         2.358264
 O         1.054350         2.705805         1.402186
 C        -0.217070         2.708047         0.600472
 H         1.047117         0.568738         1.109610
 H        -2.470065         1.916981        -0.255330
 H        -2.415841         0.137212         0.097489
 H        -2.094344         1.163906         2.476097
 H        -2.214230         3.700663         1.237628
 H        -0.994246         4.646549         3.140913
 H        -0.843056         2.889279         3.795186
 H         1.116245         4.744149         1.802895
 H         1.607243         3.663880         3.164308
 H        -0.141775         3.309442        -0.262130
