19
Iteration:  2280charge 0 multiplicity 1
 O         0.263320         0.139947         0.499403
 C        -0.525789         1.262154         0.620849
 C        -2.045723         0.984045         0.446221
 C        -1.588953         1.650160         1.720151
 C        -1.281330         3.083508         1.475773
 C        -0.643305         3.773522         2.709787
 C         0.748121         3.156088         2.681798
 O         1.040191         3.325397         1.220342
 C        -0.122867         2.795355         0.557396
 H         1.092172         0.423892         0.932907
 H        -2.746933         1.671045        -0.206716
 H        -2.173454        -0.191045         0.358910
 H        -1.505636         1.261563         2.757879
 H        -2.143157         3.573059         1.001393
 H        -0.571224         4.791197         2.457431
 H        -1.182446         3.530372         3.608765
 H         1.576005         3.680638         3.253238
 H         0.711086         2.109905         2.890814
 H        -0.244830         3.354918        -0.485845
