19
Iteration:   313
 O         0.203108         0.002786         0.537528
 C        -0.631914         1.190474         0.599065
 C        -2.008404         1.314785         0.155986
 C        -1.650894         1.558224         1.649405
 C        -1.241935         2.982418         1.654511
 C        -0.520838         3.510868         2.934402
 C         0.796187         4.015269         2.240452
 O         1.051162         2.833654         1.488267
 C        -0.135672         2.694160         0.674694
 H         0.883356         0.177861         1.149371
 H        -2.134606         2.304126        -0.412626
 H        -2.743448         0.534318        -0.167450
 H        -2.069499         1.081024         2.470814
 H        -1.933175         3.830875         1.181670
 H        -1.068634         4.421305         3.326987
 H        -0.278518         2.735201         3.740086
 H         0.532180         4.770338         1.512265
 H         1.718946         4.349867         2.843179
 H        -0.104333         3.294148        -0.317510
