19
Iteration:  1699charge 0 multiplicity 1
 O         0.294908         0.204568         0.624002
 C        -0.573346         1.249550         0.774045
 C        -1.959465         1.121053         0.290053
 C        -1.645285         1.562197         1.733503
 C        -1.367293         3.103246         1.562352
 C        -0.639212         3.728412         2.747196
 C         0.802348         3.316220         2.577383
 O         1.103919         3.095160         1.113907
 C        -0.186605         2.771270         0.477385
 H         1.220179         0.465075         0.989818
 H        -2.329388         1.854496        -0.437872
 H        -2.274649         0.100989         0.225217
 H        -1.932028         1.157845         2.731184
 H        -2.340963         3.672770         1.319530
 H        -0.975052         4.821070         2.750587
 H        -1.067687         3.258959         3.744511
 H         1.463082         4.103156         2.845757
 H         1.076761         2.508352         3.244877
 H        -0.242666         3.138655        -0.536671
