19
Iteration:  3351charge 0 multiplicity 1
 O         0.318028         0.172649         0.461045
 C        -0.559177         1.223360         0.685862
 C        -1.979843         1.146148         0.241641
 C        -1.834290         1.685690         1.639056
 C        -1.302792         3.116221         1.653331
 C        -0.610899         3.436402         2.893404
 C         0.804662         3.828866         2.385246
 O         1.084173         2.861197         1.336524
 C        -0.126096         2.657461         0.665157
 H         1.136120         0.195839         0.980525
 H        -2.171699         1.742236        -0.658553
 H        -2.448655         0.095027         0.125979
 H        -2.339268         1.265889         2.503611
 H        -1.855461         3.972688         1.179005
 H        -1.026604         4.434196         3.361032
 H        -0.621469         2.798464         3.803039
 H         0.852366         4.823516         1.864031
 H         1.639888         3.990222         3.065828
 H        -0.149569         3.097675        -0.315765
