19
Iteration:   382charge 0 multiplicity 1
 O         0.368997         0.186723         0.598705
 C        -0.595648         1.246319         0.653522
 C        -2.039422         1.108961         0.320800
 C        -1.801014         1.727211         1.635069
 C        -1.342670         3.192448         1.542609
 C        -0.616521         3.535305         2.917722
 C         0.886324         3.550643         2.458295
 O         1.062379         2.915181         1.234627
 C        -0.151669         2.697841         0.525656
 H         1.231392         0.522370         0.939181
 H        -2.522527         1.763767        -0.430337
 H        -2.354540         0.066620         0.271423
 H        -1.934848         1.301412         2.658747
 H        -2.206538         3.913861         1.310970
 H        -0.855287         4.542121         3.255301
 H        -0.944895         2.828259         3.677631
 H         1.126801         4.619572         2.312052
 H         1.553500         3.094970         3.179379
 H         0.081322         3.104558        -0.522220
