19
Iteration:  2164
 O         0.440461         0.272127         0.603630
 C        -0.598910         1.269935         0.582640
 C        -2.004650         1.041043         0.348784
 C        -1.650322         1.697200         1.725669
 C        -1.338062         3.157471         1.594373
 C        -0.685825         3.646884         2.792217
 C         0.799448         3.285744         2.573500
 O         1.064407         2.973055         1.178722
 C        -0.237452         2.801070         0.476810
 H         1.133364         0.694683         1.067227
 H        -2.479570         1.667679        -0.407575
 H        -2.289816         0.075727         0.419143
 H        -1.792227         1.085671         2.609196
 H        -2.153572         3.867226         1.330698
 H        -0.724822         4.799848         2.729415
 H        -1.234345         3.220966         3.647332
 H         1.341802         4.198357         2.818075
 H         1.136392         2.421891         3.177218
 H        -0.272178         3.350345        -0.409871
