19
Iteration:  2037
 O         0.453338         0.394723         0.501254
 C        -0.604984         1.307612         0.693933
 C        -2.000179         0.853931         0.400718
 C        -1.696187         1.720447         1.615957
 C        -1.307106         3.251364         1.523804
 C        -0.679923         3.734587         2.869839
 C         0.865625         3.255806         2.607769
 O         0.970065         2.846997         1.199585
 C        -0.194265         2.808890         0.530467
 H         1.153591         0.968493         0.755701
 H        -2.642396         1.146178        -0.576821
 H        -2.141276        -0.148535         0.564936
 H        -2.122736         1.363975         2.492861
 H        -2.016602         4.022424         1.269908
 H        -0.804137         4.737323         2.871302
 H        -1.303791         3.373201         3.683942
 H         1.547844         4.076607         2.761622
 H         1.197279         2.414981         3.258620
 H        -0.086384         3.086028        -0.576781
