19
Iteration:  4118charge 0 multiplicity 1
 O         0.250429         0.242502         0.527914
 C        -0.632986         1.286831         0.652086
 C        -1.999008         1.123601         0.203685
 C        -1.708927         1.556275         1.620976
 C        -1.327972         2.989931         1.545856
 C        -0.610377         3.513126         2.836232
 C         0.928749         3.845131         2.432429
 O         1.052179         2.855343         1.406188
 C        -0.132376         2.699406         0.728497
 H         1.139764         0.632753         0.302148
 H        -2.648654         1.802129        -0.460025
 H        -2.389608         0.055274         0.111284
 H        -2.155128         1.163199         2.567691
 H        -2.073838         3.584576         0.995900
 H        -1.007649         4.409996         3.240265
 H        -0.469075         2.779164         3.614062
 H         1.085776         4.851221         2.143357
 H         1.663623         3.812702         3.180362
 H        -0.044605         3.260308        -0.238413
