19
Iteration:   997charge 0 multiplicity 1
 O         0.359943         0.231777         0.607375
 C        -0.578756         1.207754         0.697246
 C        -1.915818         1.008001         0.257601
 C        -1.796073         1.668722         1.580077
 C        -1.380618         3.198259         1.658375
 C        -0.641207         3.734748         2.841069
 C         0.911515         3.366741         2.513656
 O         1.021960         2.993103         1.193202
 C        -0.194349         2.752207         0.614819
 H         1.195406         0.619758         0.561795
 H        -2.322672         1.681405        -0.663940
 H        -2.279229        -0.059165         0.299599
 H        -2.298196         1.163717         2.395679
 H        -2.106943         3.830043         1.152189
 H        -0.581462         4.857097         2.802808
 H        -0.963294         3.284457         3.816645
 H         1.673063         4.184539         2.624876
 H         1.116983         2.556405         3.245755
 H        -0.252258         3.144509        -0.364260
