19
Iteration:  4708charge 0 multiplicity 1
 O         0.286727         0.146813         0.331536
 C        -0.561322         1.226693         0.714519
 C        -1.994826         1.211136         0.159863
 C        -1.693010         1.594190         1.657331
 C        -1.336495         3.024522         1.724035
 C        -0.547646         3.577528         2.865165
 C         0.776479         3.885008         2.407470
 O         1.034036         2.871753         1.418251
 C        -0.105168         2.668424         0.683518
 H         1.010901         0.151000         0.982018
 H        -2.414683         1.799980        -0.691682
 H        -2.423700         0.130778         0.150075
 H        -2.053895         0.954321         2.355823
 H        -2.178139         3.600627         1.408564
 H        -1.137099         4.315791         3.468686
 H        -0.688693         2.676329         3.535104
 H         0.963937         4.871883         1.931174
 H         1.449429         3.718668         3.204911
 H         0.035214         3.326518        -0.251875
