19
Iteration:  4396
 O         0.370186         0.260341         0.533781
 C        -0.648023         1.237436         0.570164
 C        -2.085193         1.120843         0.200825
 C        -1.801420         1.468114         1.627300
 C        -1.317458         3.051330         1.642120
 C        -0.591610         3.604521         2.882287
 C         0.913417         3.768566         2.431798
 O         1.110123         2.836230         1.367818
 C        -0.204277         2.731589         0.646490
 H         1.257785         0.700444         0.619234
 H        -2.420685         1.879238        -0.416598
 H        -2.317826         0.133913        -0.072680
 H        -1.992730         0.996485         2.565404
 H        -2.039583         3.829742         1.442725
 H        -1.041558         4.597529         3.105619
 H        -0.724987         2.842465         3.649083
 H         1.072474         4.807796         2.184637
 H         1.552414         3.651802         3.350790
 H        -0.066527         3.312280        -0.231901
