19
Iteration:  1845
 O         0.429693         0.244754         0.562643
 C        -0.579220         1.199343         0.675553
 C        -2.077733         1.092685         0.302325
 C        -1.738517         1.580787         1.664938
 C        -1.302290         3.092496         1.578467
 C        -0.616548         3.769376         2.772368
 C         0.830008         3.373545         2.616742
 O         1.038196         3.083334         1.170381
 C        -0.203369         2.647059         0.569074
 H         1.213727         0.571016         1.091247
 H        -2.488094         1.902148        -0.335605
 H        -2.406644         0.130802         0.246990
 H        -2.179416         1.156082         2.489119
 H        -2.030728         3.875655         1.204400
 H        -0.789581         4.876829         2.807385
 H        -0.963758         3.365406         3.728940
 H         1.559683         4.228907         2.730260
 H         1.142831         2.568259         3.250885
 H        -0.140919         3.107878        -0.468258
