19
Iteration:  2237charge 0 multiplicity 1
 O         0.324624         0.187051         0.534722
 C        -0.565589         1.270159         0.665572
 C        -1.962118         1.067552         0.302217
 C        -1.664607         1.564908         1.761277
 C        -1.277127         3.125113         1.574810
 C        -0.642620         3.768838         2.758652
 C         0.759378         3.278460         2.595694
 O         0.970368         3.145293         1.167237
 C        -0.169982         2.768355         0.582941
 H         1.126720         0.400643         0.959244
 H        -2.270403         1.765485        -0.537044
 H        -2.081561        -0.070289         0.125241
 H        -1.813600         1.059348         2.748129
 H        -2.015469         3.782160         1.133659
 H        -0.591882         4.835163         2.750309
 H        -0.956197         3.408507         3.705075
 H         1.577647         3.948393         2.997125
 H         0.833896         2.322149         3.115516
 H        -0.113789         3.214128        -0.493961
