19
Iteration:   414
 O         0.336712         0.309450         0.707862
 C        -0.617568         1.315513         0.604421
 C        -2.080003         1.040415         0.241530
 C        -1.727854         1.609797         1.622999
 C        -1.388755         3.088370         1.594165
 C        -0.584835         3.727449         2.799974
 C         0.927458         3.372312         2.502623
 O         1.082818         2.985766         1.187334
 C        -0.166789         2.721465         0.579940
 H         1.064459         0.825989         1.093017
 H        -2.770251         1.619460        -0.457564
 H        -2.296320        -0.045815         0.334806
 H        -1.812111         0.985916         2.559285
 H        -2.307019         3.788569         1.375195
 H        -0.799986         4.817701         2.841580
 H        -0.852539         3.174317         3.721751
 H         1.662054         4.074192         2.793861
 H         1.235546         2.468430         3.162032
 H        -0.026830         3.165725        -0.466661
