19
Iteration:  2158charge 0 multiplicity 1
 O         0.390052         0.267514         0.572079
 C        -0.551498         1.277568         0.613118
 C        -2.017569         1.039135         0.379962
 C        -1.675837         1.656857         1.683468
 C        -1.280383         3.120216         1.548453
 C        -0.705296         3.665292         2.790550
 C         0.773725         3.259669         2.573321
 O         1.098179         3.056719         1.181880
 C        -0.226678         2.788655         0.507232
 H         1.129264         0.689049         1.133948
 H        -2.720042         1.602468        -0.286865
 H        -2.407168        -0.095509         0.492452
 H        -1.866526         1.220962         2.674310
 H        -2.085597         3.813220         1.261262
 H        -0.679572         4.701974         2.849643
 H        -1.121763         3.264188         3.733793
 H         1.348535         4.175443         2.798103
 H         1.080267         2.450050         3.246446
 H        -0.132439         3.401510        -0.496688
