19
Iteration:  1659charge 0 multiplicity 1
 O         0.332096         0.045007         0.565066
 C        -0.576010         1.172412         0.746801
 C        -2.051107         0.973756         0.299526
 C        -1.731369         1.673599         1.692486
 C        -1.302569         3.103322         1.594807
 C        -0.593543         3.763758         2.790484
 C         0.831205         3.295601         2.592647
 O         1.080445         3.383192         1.122297
 C        -0.163767         2.792021         0.530477
 H         1.053654         0.254321         1.133316
 H        -2.351413         1.413716        -0.633418
 H        -2.338560        -0.216577         0.241302
 H        -2.327945         1.112488         2.524642
 H        -2.126740         3.765760         1.300834
 H        -0.507174         4.824075         2.794906
 H        -1.070296         3.504744         3.655391
 H         1.541647         3.909675         3.287932
 H         0.871360         2.199848         2.929134
 H        -0.146547         3.197315        -0.571358
