19
Iteration:  1095charge 0 multiplicity 1
 O         0.382241         0.295684         0.493462
 C        -0.569537         1.300454         0.677350
 C        -2.059810         0.942510         0.442992
 C        -1.761136         1.617140         1.736244
 C        -1.343408         3.147355         1.492947
 C        -0.593413         3.827408         2.670062
 C         0.755204         3.149747         2.662952
 O         1.169950         3.118095         1.241013
 C        -0.157598         2.760414         0.520667
 H         1.187035         0.732768         0.636201
 H        -2.654522         1.475327        -0.416384
 H        -2.236172        -0.227922         0.463610
 H        -2.070367         1.261358         2.769967
 H        -2.158060         3.815480         1.123697
 H        -0.572416         4.921409         2.389362
 H        -1.283400         3.631416         3.536928
 H         1.452210         3.632213         3.384742
 H         0.459723         2.127819         3.062248
 H        -0.044275         3.175222        -0.511013
