19
Iteration:  1188
 O         0.305593         0.145032         0.520105
 C        -0.526164         1.243702         0.775185
 C        -2.028666         1.095339         0.356868
 C        -1.665031         1.659606         1.707876
 C        -1.341337         3.128876         1.515891
 C        -0.705149         3.740872         2.767222
 C         0.794355         3.301972         2.568251
 O         1.063655         3.213802         1.180720
 C        -0.096255         2.650238         0.568143
 H         1.200587         0.427517         0.767408
 H        -2.409437         1.656539        -0.450621
 H        -2.177454         0.045977         0.250504
 H        -2.106826         1.183601         2.586634
 H        -2.076538         3.826819         1.092539
 H        -0.683281         4.832479         2.848992
 H        -1.098394         3.332362         3.706713
 H         1.579784         3.981960         2.959008
 H         0.992640         2.315181         2.998818
 H        -0.161233         2.914225        -0.456457
