19
Iteration:  2571charge 0 multiplicity 1
 O         0.328276         0.206592         0.543769
 C        -0.528474         1.271922         0.713286
 C        -1.998637         1.101414         0.336648
 C        -1.706111         1.589903         1.756812
 C        -1.384072         3.054618         1.570325
 C        -0.588384         3.672860         2.676470
 C         0.835825         3.349343         2.625666
 O         1.027163         3.161444         1.166947
 C        -0.134559         2.755495         0.531510
 H         1.100734         0.465757         1.025363
 H        -2.536942         1.841335        -0.422828
 H        -2.426947         0.151546         0.214200
 H        -1.923962         1.091524         2.664337
 H        -2.231743         3.582907         1.166431
 H        -0.724656         4.734364         2.836645
 H        -1.050623         3.218214         3.597271
 H         1.537769         4.058131         2.988447
 H         0.942402         2.398966         3.181331
 H        -0.167667         3.126340        -0.524117
