19
Iteration:   567
 O         0.326011         0.157470         0.484561
 C        -0.580821         1.187002         0.596407
 C        -2.011890         1.184371         0.281516
 C        -1.567367         1.534849         1.753046
 C        -1.332135         3.077722         1.649127
 C        -0.636684         3.913338         2.701616
 C         0.767978         3.432591         2.559414
 O         1.069227         2.963784         1.254017
 C        -0.167711         2.681705         0.658523
 H         1.120648         0.501375         0.801277
 H        -2.413230         1.949399        -0.478917
 H        -2.792314         0.393033         0.359088
 H        -2.076112         0.993787         2.513469
 H        -2.161185         3.567209         1.085282
 H        -0.859454         5.058324         2.702350
 H        -0.901644         3.591335         3.756547
 H         1.481431         4.185924         2.693753
 H         0.857230         2.600152         3.316586
 H        -0.080171         3.171665        -0.332739
