19
Iteration:  4881charge 0 multiplicity 1
 O         0.336051         0.301661         0.519212
 C        -0.608810         1.230076         0.732970
 C        -2.036262         1.088041         0.196224
 C        -1.890078         1.543241         1.672852
 C        -1.351305         3.066659         1.586958
 C        -0.547115         3.440085         2.848896
 C         0.896986         3.767452         2.486123
 O         1.154918         2.986694         1.229615
 C        -0.199070         2.696489         0.688049
 H         1.089366         0.735798         0.943802
 H        -2.397568         1.754385        -0.655312
 H        -2.208830         0.064556        -0.070887
 H        -2.452232         1.061203         2.417903
 H        -2.104082         3.905556         1.199490
 H        -0.999308         4.364198         3.361674
 H        -0.500530         2.533227         3.439140
 H         1.212212         4.753443         2.552789
 H         1.680419         3.116996         3.196245
 H        -0.196922         3.209741        -0.278859
