19
Iteration:  2595
 O         0.330135         0.147505         0.463201
 C        -0.562337         1.207198         0.688721
 C        -1.980441         1.013456         0.295227
 C        -1.739556         1.674449         1.650592
 C        -1.308028         3.143525         1.598859
 C        -0.648366         3.729732         2.915271
 C         0.877132         3.469032         2.519325
 O         1.073520         3.028172         1.224879
 C        -0.192504         2.763861         0.564767
 H         1.156054         0.541963         0.929348
 H        -2.550398         1.368565        -0.648178
 H        -2.291727        -0.011605         0.372432
 H        -2.064090         1.092605         2.589854
 H        -2.139356         3.666842         1.077280
 H        -0.800378         4.867049         3.101033
 H        -1.223726         3.271833         3.873042
 H         1.374477         4.468923         2.632698
 H         1.218094         2.763943         3.284607
 H        -0.333851         3.241246        -0.388421
