19
Iteration:  4899charge 0 multiplicity 1
 O         0.320681         0.234183         0.506601
 C        -0.575208         1.232697         0.688499
 C        -2.019764         1.083170         0.227351
 C        -1.850839         1.665769         1.588413
 C        -1.305633         3.082090         1.638506
 C        -0.583932         3.414785         2.958403
 C         0.885647         3.685956         2.495510
 O         1.082557         3.029714         1.230051
 C        -0.134487         2.711385         0.588619
 H         1.135779         0.507254         0.945644
 H        -2.507847         1.626455        -0.528259
 H        -2.365517         0.020621         0.301149
 H        -2.200549         1.191727         2.511729
 H        -2.012129         3.748318         1.265347
 H        -1.156097         4.190127         3.463014
 H        -0.595475         2.604078         3.687033
 H         0.874648         4.824774         2.214233
 H         1.558069         3.553033         3.239830
 H        -0.020292         3.098930        -0.481463
