19
Iteration:   928
 O         0.272806         0.201848         0.604318
 C        -0.543028         1.303125         0.750500
 C        -1.880298         0.967993         0.272399
 C        -1.672199         1.658179         1.697819
 C        -1.351112         3.167550         1.540242
 C        -0.584579         3.806121         2.754683
 C         0.798150         3.137742         2.571683
 O         1.009796         3.177267         1.166063
 C        -0.211529         2.784910         0.574802
 H         1.168518         0.190240         1.143776
 H        -2.329889         1.573966        -0.564921
 H        -2.150795        -0.113358         0.405575
 H        -2.229737         1.156532         2.516052
 H        -2.083910         3.910342         1.125306
 H        -0.622954         4.925746         2.582651
 H        -0.992322         3.454356         3.671410
 H         1.643934         3.622478         3.028660
 H         0.869591         2.057490         2.838100
 H        -0.310678         3.357168        -0.387619
