19
Iteration:  2733
 O         0.116667         0.033604         0.488224
 C        -0.572269         1.221638         0.616513
 C        -1.938349         1.245378         0.171599
 C        -1.577841         1.533868         1.712637
 C        -1.317955         3.036242         1.575016
 C        -0.570524         3.559040         2.916548
 C         0.805110         3.921474         2.438042
 O         1.061767         2.968441         1.380149
 C        -0.084834         2.676225         0.621559
 H         0.776086         0.187027         1.126609
 H        -2.341298         2.087088        -0.467658
 H        -2.396741         0.242774         0.018266
 H        -2.085360         0.840953         2.536933
 H        -2.285671         3.458134         1.232396
 H        -1.207703         4.232125         3.473778
 H        -0.506065         2.658324         3.449164
 H         0.779819         4.994236         1.882917
 H         1.662575         3.897659         3.198107
 H        -0.019822         3.133991        -0.333666
