19
Iteration:   936
 O         0.298900         0.214736         0.620633
 C        -0.573201         1.261241         0.714119
 C        -1.952259         0.966177         0.286952
 C        -1.646062         1.644961         1.625106
 C        -1.309662         3.173031         1.560834
 C        -0.589093         3.767483         2.765541
 C         0.826228         3.184752         2.594046
 O         1.029839         3.180917         1.146956
 C        -0.202760         2.792677         0.548231
 H         0.879943         0.454640         1.429610
 H        -2.501834         1.475502        -0.354659
 H        -2.232819        -0.110357         0.322297
 H        -2.156072         1.130568         2.535703
 H        -2.110198         3.867745         1.228000
 H        -0.624438         4.822473         2.797748
 H        -1.187680         3.482384         3.650558
 H         1.665787         3.694631         3.053099
 H         0.686652         2.153083         3.045026
 H        -0.163575         3.322394        -0.502147
