19
Iteration:  3541charge 0 multiplicity 1
 O         0.347940         0.178642         0.427077
 C        -0.569424         1.241324         0.680617
 C        -2.065026         1.191924         0.226091
 C        -1.759193         1.647668         1.624569
 C        -1.349405         3.061659         1.545331
 C        -0.588974         3.544146         2.874193
 C         0.820796         3.937961         2.380323
 O         1.035695         2.746031         1.439811
 C        -0.109910         2.635634         0.727615
 H         1.249291         0.398739         0.617518
 H        -2.246646         1.798089        -0.686338
 H        -2.229201         0.077833         0.275244
 H        -2.136849         0.921592         2.379527
 H        -2.104224         3.788171         1.321391
 H        -1.034942         4.449051         3.322594
 H        -0.444233         2.817641         3.719531
 H         1.032655         4.848538         1.960606
 H         1.481949         3.891730         3.326121
 H        -0.106109         3.177210        -0.177100
