19
Iteration:  1955
 O         0.366450         0.105546         0.533639
 C        -0.527975         1.262472         0.786069
 C        -1.938056         1.128545         0.313772
 C        -1.688066         1.632836         1.717597
 C        -1.432741         3.086058         1.562058
 C        -0.634310         3.755489         2.802172
 C         0.801427         3.213895         2.562043
 O         1.038299         3.193987         1.133039
 C        -0.197923         2.787041         0.555776
 H         1.165522         0.543575         0.761837
 H        -2.395980         1.592532        -0.507454
 H        -2.122594         0.035406         0.429982
 H        -2.140543         1.053289         2.534153
 H        -2.169869         3.824594         1.133234
 H        -0.581229         4.922159         2.649622
 H        -0.906669         3.534960         3.856695
 H         1.549591         3.945738         2.964884
 H         0.999821         2.259307         3.015079
 H        -0.313127         3.201478        -0.469707
