19
Iteration:  2944
 O         0.278756         0.179131         0.436398
 C        -0.621988         1.242575         0.628669
 C        -1.989893         1.152742         0.232074
 C        -1.741176         1.577790         1.569840
 C        -1.278866         3.084302         1.675052
 C        -0.560637         3.569538         2.923949
 C         0.829406         3.919125         2.294007
 O         1.071740         2.731401         1.495615
 C        -0.149534         2.699035         0.654537
 H         1.067215         0.362651         1.049254
 H        -2.478654         1.868999        -0.548916
 H        -2.365158         0.132383         0.236250
 H        -2.107162         1.050387         2.409251
 H        -1.998892         3.794977         1.278467
 H        -1.207966         4.378331         3.313787
 H        -0.515250         2.859405         3.697076
 H         0.654539         4.858076         1.723997
 H         1.619238         3.969147         3.035630
 H         0.027520         3.299968        -0.208913
