19
Iteration:   702
 O         0.432941         0.360453         0.760770
 C        -0.597991         1.315635         0.641798
 C        -1.973393         1.013662         0.279640
 C        -1.753028         1.720761         1.575716
 C        -1.373948         3.217557         1.581167
 C        -0.563397         3.662375         2.793188
 C         0.854184         3.151870         2.595032
 O         1.005422         2.935768         1.123043
 C        -0.250891         2.785208         0.511236
 H         1.321077         0.894987         0.922984
 H        -2.508161         1.443895        -0.517425
 H        -2.332665         0.009880         0.583019
 H        -2.199018         1.177217         2.464445
 H        -2.309667         3.847676         1.442498
 H        -0.436970         4.778219         2.716024
 H        -0.990987         3.407985         3.751475
 H         1.657826         3.936317         2.827067
 H         1.033347         2.201033         3.104172
 H        -0.197015         3.259669        -0.539098
