19
Iteration:  1776
 O         0.483787         0.313117         0.461548
 C        -0.569967         1.253654         0.694591
 C        -2.025256         1.046767         0.485058
 C        -1.625389         1.694920         1.777762
 C        -1.335301         3.148962         1.494321
 C        -0.612001         3.807288         2.643898
 C         0.734498         3.111596         2.673335
 O         1.000864         3.047217         1.220745
 C        -0.205374         2.732313         0.482151
 H         1.236437         0.725701         0.826809
 H        -2.513398         1.763964        -0.143517
 H        -2.520283         0.000727         0.480330
 H        -1.953162         1.206571         2.787326
 H        -2.229085         3.615989         0.984799
 H        -0.512351         4.939065         2.403292
 H        -1.281525         3.732882         3.600413
 H         1.444869         3.694177         3.224658
 H         0.654318         2.096521         3.074183
 H        -0.257235         3.016415        -0.541437
