19
Iteration:  1718
 O         0.405675         0.256741         0.681459
 C        -0.627927         1.292582         0.506785
 C        -2.120877         0.999097         0.339259
 C        -1.668474         1.590837         1.625177
 C        -1.323957         3.079598         1.613990
 C        -0.615716         3.791068         2.735133
 C         0.873236         3.355877         2.562761
 O         1.037693         3.025800         1.209724
 C        -0.194813         2.757963         0.596092
 H         1.072648         0.739244         1.235259
 H        -2.622786         1.703533        -0.445247
 H        -2.265921        -0.015095         0.296748
 H        -1.897954         0.971940         2.402471
 H        -2.077951         3.625207         1.113439
 H        -0.597824         4.898986         2.658189
 H        -1.004882         3.506305         3.771449
 H         1.609483         4.094142         2.852405
 H         1.204803         2.398578         3.082592
 H        -0.222205         3.251741        -0.346042
