19
Iteration:  3213charge 0 multiplicity 1
 O         0.275923         0.198020         0.538065
 C        -0.564281         1.280956         0.593667
 C        -1.990326         1.166508         0.222221
 C        -1.642418         1.581918         1.639014
 C        -1.325343         3.039791         1.581432
 C        -0.625716         3.565690         2.937468
 C         0.822766         3.824712         2.356229
 O         1.006864         2.755664         1.406870
 C        -0.110829         2.757388         0.586422
 H         0.811513         0.472962         1.348550
 H        -2.578091         1.881964        -0.325155
 H        -2.226325         0.072249        -0.009602
 H        -2.001143         1.174323         2.552977
 H        -2.231343         3.597956         1.255745
 H        -1.074424         4.453225         3.310432
 H        -0.411711         2.775836         3.663626
 H         0.975946         4.824201         1.999081
 H         1.645866         3.723227         3.122292
 H        -0.052147         3.248797        -0.402250
