19
Iteration:  4911
 O         0.308752         0.145529         0.541737
 C        -0.603265         1.273130         0.566744
 C        -1.992384         1.115812         0.243574
 C        -1.692552         1.658295         1.619816
 C        -1.315730         3.118054         1.588515
 C        -0.569070         3.368306         2.962904
 C         0.798255         3.760161         2.505059
 O         1.063494         2.980277         1.263714
 C        -0.196289         2.736996         0.613047
 H         1.115216         0.423052         1.057682
 H        -2.363239         1.582255        -0.606360
 H        -2.323574         0.083289         0.378916
 H        -2.112649         1.120812         2.393388
 H        -1.955025         3.931570         1.431534
 H        -0.833889         4.340122         3.445601
 H        -0.718458         2.534934         3.567964
 H         0.848637         4.911816         2.308851
 H         1.691798         3.456696         2.947371
 H        -0.303334         3.326920        -0.378251
