19
Iteration:  3045
 O         0.352725         0.226054         0.567089
 C        -0.595413         1.271372         0.609780
 C        -2.078065         1.165089         0.297861
 C        -1.751544         1.638279         1.615735
 C        -1.295365         3.078697         1.625161
 C        -0.653204         3.495406         2.874293
 C         0.791890         3.672128         2.454028
 O         1.195417         2.892398         1.253811
 C        -0.164057         2.695347         0.580726
 H         1.171657         0.369388         1.126010
 H        -2.647365         1.834862        -0.423952
 H        -2.408356         0.002774         0.136038
 H        -2.019479         1.145551         2.612195
 H        -2.058112         3.815474         1.309934
 H        -1.115079         4.476550         3.187675
 H        -0.846086         2.831326         3.645557
 H         0.943854         4.781668         2.160567
 H         1.401801         3.573094         3.435967
 H        -0.087409         3.169515        -0.387167
