19
Iteration:  4491
 O         0.299593         0.140710         0.469675
 C        -0.508535         1.267562         0.661970
 C        -2.039098         1.197551         0.212626
 C        -1.687173         1.527041         1.626069
 C        -1.286270         3.019331         1.648945
 C        -0.573621         3.514405         2.874490
 C         0.752990         3.928029         2.407638
 O         1.079095         2.894447         1.449794
 C        -0.104268         2.709692         0.706984
 H         0.075524        -0.477716        -0.279426
 H        -2.310601         2.056731        -0.524938
 H        -2.410393         0.226244        -0.070073
 H        -2.460346         1.141952         2.209561
 H        -2.123484         3.684769         1.298697
 H        -1.031022         4.307263         3.385968
 H        -0.455293         2.610437         3.510040
 H         0.748164         4.951421         1.935926
 H         1.554869         3.991062         3.132510
 H        -0.134433         3.075040        -0.326897
