19
Iteration:  1567charge 0 multiplicity 1
 O         0.370639         0.338513         0.540163
 C        -0.555863         1.273790         0.705139
 C        -1.956718         0.895953         0.373376
 C        -1.776721         1.655909         1.665556
 C        -1.398599         3.170540         1.545177
 C        -0.574517         3.793739         2.677507
 C         0.852579         3.155323         2.643652
 O         1.056293         3.083433         1.201889
 C        -0.236524         2.793462         0.589265
 H         1.150125         0.652217         0.927480
 H        -2.438062         1.199116        -0.558244
 H        -2.239840        -0.071770         0.643075
 H        -2.019845         1.191756         2.615249
 H        -2.254075         3.808136         1.082739
 H        -0.468846         4.865883         2.424790
 H        -1.188930         3.751860         3.639131
 H         1.672338         3.742525         3.062619
 H         1.046463         2.087023         2.936226
 H        -0.184308         3.263928        -0.411777
