19
Iteration:  1622
 O         0.343136         0.283891         0.725545
 C        -0.548368         1.305476         0.617213
 C        -1.964783         1.124748         0.329912
 C        -1.603995         1.564557         1.746493
 C        -1.373072         3.113252         1.567339
 C        -0.590391         3.651485         2.745263
 C         0.808495         3.287375         2.560443
 O         0.994907         3.022413         1.127168
 C        -0.241779         2.819265         0.455657
 H         0.980849         0.379161         1.372446
 H        -2.467350         1.739561        -0.436518
 H        -2.009642         0.141607         0.191951
 H        -1.815323         1.022096         2.611426
 H        -2.303324         3.759860         1.296549
 H        -0.671992         4.745780         2.531522
 H        -1.134084         3.451272         3.746988
 H         1.491810         4.006682         2.930947
 H         0.982228         2.292012         3.007223
 H        -0.145683         3.269642        -0.534468
