19
Iteration:  3198
 O         0.281033         0.149612         0.542404
 C        -0.575871         1.240805         0.620136
 C        -2.014099         1.188783         0.186328
 C        -1.664186         1.502472         1.643410
 C        -1.374156         3.078473         1.631464
 C        -0.580713         3.585574         2.814721
 C         0.877849         3.862285         2.407183
 O         1.034928         2.882894         1.417604
 C        -0.189300         2.707456         0.640245
 H         0.899288        -0.084859         1.249542
 H        -2.190116         2.099927        -0.532576
 H        -2.484642         0.270957         0.131432
 H        -1.758314         0.693153         2.410894
 H        -2.071315         3.786978         1.226779
 H        -1.090827         4.417814         3.376097
 H        -0.566629         2.674047         3.341535
 H         1.039811         4.824671         1.919744
 H         1.585199         3.604225         3.202865
 H        -0.026004         3.295709        -0.371992
