19
Iteration:  3138
 O         0.227214         0.078204         0.552140
 C        -0.524681         1.224359         0.640226
 C        -2.029931         1.185849         0.202064
 C        -1.729419         1.559861         1.661847
 C        -1.346106         3.067346         1.591158
 C        -0.586937         3.456466         2.849854
 C         0.860464         3.924469         2.368352
 O         1.077422         2.956952         1.451505
 C        -0.111803         2.739294         0.589346
 H         1.077109         0.176762         0.958286
 H        -2.360900         1.844989        -0.517030
 H        -2.478671         0.210486        -0.042831
 H        -2.317267         1.190960         2.453881
 H        -2.025267         3.890704         1.225143
 H        -1.189150         3.942516         3.632289
 H        -0.227029         2.443832         3.357059
 H         0.856253         5.036026         2.058260
 H         1.706039         3.867015         3.070698
 H        -0.145314         3.035037        -0.449844
