19
Iteration:  2909charge 0 multiplicity 1
 O         0.198138         0.094848         0.510229
 C        -0.576648         1.246529         0.609952
 C        -2.042963         1.124302         0.190359
 C        -1.707138         1.528623         1.594714
 C        -1.305555         3.068526         1.606546
 C        -0.570394         3.542511         2.894695
 C         0.884478         3.920348         2.412252
 O         1.111423         2.886339         1.415739
 C        -0.163323         2.781656         0.662433
 H         0.973366         0.314393         1.136864
 H        -2.584978         1.779241        -0.557074
 H        -2.349532         0.102858         0.052930
 H        -2.011573         0.682313         2.346765
 H        -2.031130         3.818214         1.277647
 H        -1.167809         4.370824         3.263545
 H        -0.577671         2.741921         3.742382
 H         1.150469         4.953158         1.965917
 H         1.610035         3.763031         3.237262
 H        -0.037093         3.315434        -0.298860
