19
Iteration:  3595charge 0 multiplicity 1
 O         0.200643         0.081330         0.486822
 C        -0.576883         1.222297         0.583404
 C        -2.023200         1.129069         0.117637
 C        -1.607172         1.559566         1.664469
 C        -1.287437         2.990964         1.599985
 C        -0.630276         3.635110         2.922937
 C         0.862583         3.890166         2.480787
 O         1.064688         2.938768         1.417010
 C        -0.114450         2.722979         0.608872
 H         0.747631        -0.039971         1.261881
 H        -2.502708         1.980218        -0.388960
 H        -2.449171         0.086459        -0.140450
 H        -2.025835         0.906826         2.450221
 H        -2.132158         3.598053         1.256349
 H        -0.991294         4.625412         3.215436
 H        -0.616924         2.769222         3.621983
 H         0.925936         4.984518         2.103761
 H         1.625429         3.652814         3.325798
 H        -0.152439         3.403102        -0.272344
