19
Iteration:  2053
 O         0.423723         0.375570         0.538287
 C        -0.594573         1.283373         0.550083
 C        -1.995436         0.907811         0.326627
 C        -1.823208         1.693060         1.684619
 C        -1.398392         3.165714         1.541948
 C        -0.588722         3.742755         2.784394
 C         0.833758         3.336365         2.642932
 O         1.108289         2.895347         1.254090
 C        -0.261495         2.746900         0.534747
 H         1.284899         0.886043         0.697806
 H        -2.561609         1.286010        -0.445046
 H        -2.200761        -0.201284         0.609009
 H        -1.920414         1.154830         2.694219
 H        -2.153930         3.856842         1.096825
 H        -0.546406         4.924422         2.913294
 H        -0.831468         3.309045         3.781300
 H         1.539714         4.199532         2.837911
 H         1.084913         2.487802         3.290921
 H        -0.122655         3.349125        -0.313179
