19
Iteration:  2579charge 0 multiplicity 1
 O         0.325231         0.204308         0.515821
 C        -0.579224         1.281984         0.676051
 C        -1.959232         1.062839         0.324711
 C        -1.665279         1.605660         1.722721
 C        -1.352731         3.114848         1.568431
 C        -0.642434         3.690597         2.766620
 C         0.850328         3.399252         2.662065
 O         1.002438         3.116246         1.146617
 C        -0.166411         2.689771         0.570641
 H         1.172973         0.307964         0.952101
 H        -2.400792         1.799712        -0.394696
 H        -2.385723        -0.001264         0.287107
 H        -2.101589         1.248686         2.620142
 H        -2.092313         3.810545         1.148456
 H        -0.815270         4.732978         2.916245
 H        -0.947513         3.265900         3.650496
 H         1.548875         4.206551         2.789565
 H         1.167467         2.427378         3.103561
 H        -0.060995         3.035742        -0.539070
