19
Iteration:   350
 O         0.214216         0.184834         0.559023
 C        -0.617466         1.248594         0.666361
 C        -2.028246         1.063708         0.160717
 C        -1.857255         1.594198         1.611584
 C        -1.298595         3.067247         1.611982
 C        -0.501722         3.530971         2.899100
 C         0.953146         3.839998         2.380637
 O         1.090747         2.865412         1.392130
 C        -0.145376         2.732178         0.622783
 H         0.976764         0.376527         1.145426
 H        -2.410475         1.787261        -0.562824
 H        -2.266735         0.035128        -0.081734
 H        -2.173113         1.072065         2.580907
 H        -2.102832         3.807562         1.274343
 H        -0.944169         4.439521         3.281310
 H        -0.554749         2.855539         3.743464
 H         0.946846         4.922309         1.898970
 H         1.768271         3.839309         3.089009
 H        -0.026232         3.225804        -0.389326
