19
Iteration:   513
 O         0.359467         0.270497         0.523312
 C        -0.575769         1.318034         0.606814
 C        -2.051176         0.895591         0.336816
 C        -1.670572         1.665815         1.667075
 C        -1.303935         3.198793         1.609437
 C        -0.632981         3.880467         2.757637
 C         0.854386         3.309490         2.706032
 O         1.081075         2.835648         1.186619
 C        -0.251753         2.827880         0.502427
 H         1.053325         0.659805         0.967440
 H        -2.782443         1.321360        -0.405896
 H        -2.161519        -0.233670         0.444623
 H        -1.832543         1.255363         2.665533
 H        -2.139911         3.864250         1.125370
 H        -0.817362         5.011192         2.642863
 H        -1.136054         3.567018         3.707749
 H         1.739622         3.930575         2.887711
 H         0.881530         2.469103         3.497616
 H        -0.119183         3.400233        -0.501757
