19
Iteration:  3771charge 0 multiplicity 1
 O         0.198334         0.132124         0.568013
 C        -0.581486         1.250008         0.572481
 C        -2.104648         1.107905         0.212835
 C        -1.653957         1.546877         1.570150
 C        -1.328705         3.081131         1.622685
 C        -0.582376         3.503864         2.872995
 C         0.852859         3.844904         2.441419
 O         1.031526         2.941612         1.403620
 C        -0.024633         2.763490         0.568792
 H         0.897036         0.400077         1.232301
 H        -2.521795         1.634105        -0.562189
 H        -2.239370         0.084013        -0.094310
 H        -1.718820         0.976794         2.508053
 H        -2.191599         3.720543         1.402822
 H        -1.009424         4.238731         3.535952
 H        -0.438930         2.732289         3.674764
 H         0.958143         4.937458         2.264011
 H         1.668250         3.737132         3.238717
 H         0.137460         3.273389        -0.451673
