19
Iteration:  2346
 O         0.475651         0.414826         0.587316
 C        -0.642547         1.250568         0.625103
 C        -2.148315         1.000054         0.237216
 C        -1.680986         1.596630         1.668534
 C        -1.363279         3.051053         1.612966
 C        -0.564775         3.785729         2.768396
 C         0.861180         3.423547         2.562666
 O         1.053205         2.864220         1.251084
 C        -0.224200         2.675176         0.568756
 H         1.107694         0.874978         1.103452
 H        -2.681754         1.881917        -0.403619
 H        -2.554785         0.071860         0.073258
 H        -1.861603         1.257811         2.641376
 H        -2.211029         3.750843         1.347143
 H        -0.818263         4.824634         2.715902
 H        -0.738318         3.491254         3.801602
 H         1.573099         4.308685         2.716849
 H         1.068827         2.613068         3.202446
 H        -0.037803         3.159090        -0.507161
