19
Iteration:  4513
 O         0.305338         0.166924         0.506043
 C        -0.541836         1.289852         0.723781
 C        -1.957112         1.196583         0.110207
 C        -1.825935         1.571172         1.619119
 C        -1.330116         3.014679         1.681020
 C        -0.607620         3.474985         2.977521
 C         0.772143         3.943758         2.347994
 O         1.112187         2.868635         1.373900
 C        -0.098241         2.673497         0.750195
 H         0.148774        -0.176336        -0.363807
 H        -2.138531         1.977692        -0.713172
 H        -2.414194         0.239225        -0.124818
 H        -1.892212         0.953591         2.434926
 H        -2.122540         3.669308         1.258559
 H        -1.019694         4.313269         3.417594
 H        -0.363323         2.636773         3.667075
 H         0.782430         4.921748         1.797512
 H         1.653830         3.977146         2.949089
 H        -0.097085         3.037511        -0.271601
