19
Iteration:  1387
 O         0.358263         0.231530         0.436294
 C        -0.557725         1.199611         0.793264
 C        -2.048960         0.989807         0.314645
 C        -1.814905         1.624688         1.699010
 C        -1.273461         3.116032         1.477548
 C        -0.601187         3.816165         2.787402
 C         0.896946         3.367150         2.616134
 O         1.029219         3.153183         1.249731
 C        -0.181760         2.665322         0.578892
 H         1.134743         0.299230         0.974110
 H        -2.562529         1.537606        -0.507725
 H        -2.307987        -0.018313         0.382092
 H        -2.085776         1.220234         2.641480
 H        -2.168295         3.664469         1.059393
 H        -0.742866         4.958460         2.596261
 H        -1.165993         3.540142         3.685477
 H         1.763218         4.072140         2.855085
 H         1.045409         2.369673         3.164908
 H         0.013050         2.960690        -0.401496
