19
Iteration:  3550charge 0 multiplicity 1
 O         0.265506         0.166183         0.406959
 C        -0.562922         1.224499         0.707478
 C        -2.013875         1.123650         0.209507
 C        -1.708304         1.549254         1.615033
 C        -1.288387         3.105411         1.570205
 C        -0.585738         3.574227         2.866651
 C         0.815369         3.884161         2.388544
 O         1.027243         2.841514         1.506601
 C        -0.122263         2.683787         0.685948
 H         1.090807         0.523994         0.732309
 H        -2.441209         1.814079        -0.528907
 H        -2.456144         0.165064         0.149769
 H        -2.205926         1.083441         2.517701
 H        -1.976261         3.901353         1.189375
 H        -1.158802         4.414661         3.319614
 H        -0.458279         2.621775         3.437989
 H         0.957071         4.854126         1.826506
 H         1.577831         3.746999         3.178133
 H         0.128095         3.099511        -0.321053
