19
Iteration:  1219
 O         0.348468         0.082321         0.569794
 C        -0.517116         1.233420         0.678928
 C        -1.989408         1.076927         0.359196
 C        -1.639338         1.645465         1.718209
 C        -1.399548         3.135196         1.537861
 C        -0.641204         3.776753         2.741323
 C         0.830739         3.208419         2.560094
 O         1.010402         3.249791         1.184910
 C        -0.180279         2.786521         0.549913
 H         0.992219        -0.048197         1.349562
 H        -2.217129         1.832045        -0.522884
 H        -2.241004         0.078080         0.102714
 H        -2.084352         1.145513         2.532920
 H        -2.210482         3.734057         1.248753
 H        -0.520665         4.833568         2.672186
 H        -1.053626         3.618564         3.761310
 H         1.538543         3.904289         3.062376
 H         0.958118         2.154142         2.986007
 H        -0.319473         3.187141        -0.387255
