19
Iteration:  2600
 O         0.355988         0.133152         0.469452
 C        -0.595908         1.249564         0.664155
 C        -1.993134         0.998603         0.274738
 C        -1.793294         1.653434         1.651105
 C        -1.332941         3.122914         1.646700
 C        -0.624081         3.718272         2.867083
 C         0.862671         3.542687         2.545934
 O         1.087837         2.983366         1.234160
 C        -0.160404         2.803906         0.574611
 H         1.187205         0.440385         0.833652
 H        -2.497616         1.321387        -0.598415
 H        -2.404451        -0.057288         0.481998
 H        -2.000120         1.149715         2.574236
 H        -2.151019         3.638835         1.113200
 H        -0.731989         4.757218         3.142811
 H        -1.049030         3.248736         3.707413
 H         1.384720         4.523817         2.562849
 H         1.212287         2.768000         3.258511
 H        -0.253585         3.369458        -0.398572
