19
Iteration:   685charge 0 multiplicity 1
 O         0.445517         0.498211         0.794234
 C        -0.698473         1.222619         0.608762
 C        -2.108741         0.903384         0.154019
 C        -1.784762         1.633221         1.638730
 C        -1.321924         3.151900         1.562687
 C        -0.465963         3.791754         2.776030
 C         0.917485         3.114767         2.572189
 O         1.038970         2.984745         1.188601
 C        -0.281239         2.799478         0.566961
 H         1.089500         1.192467         1.114795
 H        -2.523840         1.296503        -0.910822
 H        -2.398790        -0.163504         0.209202
 H        -2.008336         1.152242         2.560893
 H        -1.869512         3.994135         1.201087
 H        -0.502631         4.868526         2.709607
 H        -0.898833         3.591638         3.803738
 H         1.717532         3.679659         2.958774
 H         0.935773         2.107868         3.078757
 H        -0.220551         3.251593        -0.370110
