19
Iteration:  4806charge 0 multiplicity 1
 O         0.302279         0.277545         0.374509
 C        -0.575576         1.267854         0.635533
 C        -2.062824         1.063729         0.250313
 C        -1.776577         1.553325         1.706883
 C        -1.281821         3.052312         1.597238
 C        -0.605415         3.569719         2.881231
 C         0.828313         3.815789         2.535628
 O         1.121629         2.825443         1.330045
 C        -0.150399         2.713815         0.650988
 H         1.015406         0.610454         0.963465
 H        -2.508149         1.682353        -0.623353
 H        -2.283637        -0.033793         0.133812
 H        -2.178545         1.034207         2.510259
 H        -2.000801         3.841466         1.190338
 H        -0.991650         4.466666         3.478825
 H        -0.624690         2.695400         3.626202
 H         0.981991         4.808206         1.978675
 H         1.636553         3.715300         3.324857
 H        -0.186369         3.184407        -0.319387
