19
Iteration:  4121charge 0 multiplicity 1
 O         0.229471         0.261240         0.534039
 C        -0.657031         1.267499         0.643759
 C        -1.997865         1.103939         0.202722
 C        -1.697979         1.566274         1.628229
 C        -1.330522         2.950537         1.533936
 C        -0.595296         3.528047         2.831166
 C         0.917833         3.841781         2.445058
 O         1.062585         2.848270         1.392295
 C        -0.115986         2.725364         0.728006
 H         1.093191         0.602903         0.225851
 H        -2.465857         1.827030        -0.411054
 H        -2.309576         0.080509         0.129206
 H        -2.182172         1.183619         2.461031
 H        -2.068577         3.533736         1.074603
 H        -1.047683         4.451113         3.269396
 H        -0.488256         2.844763         3.740700
 H         1.040124         4.930290         2.153968
 H         1.688878         3.790461         3.287192
 H        -0.064080         3.289487        -0.268909
