19
Iteration:   598
 O         0.172343         0.127200         0.487892
 C        -0.568656         1.291476         0.670759
 C        -1.996202         0.996600         0.379271
 C        -1.651223         1.543125         1.718562
 C        -1.331946         3.101039         1.445043
 C        -0.595515         3.770720         2.656841
 C         0.832980         3.296152         2.713018
 O         1.139594         3.197208         1.233061
 C        -0.179291         2.873912         0.579328
 H         0.981581        -0.031230         1.111593
 H        -2.561865         1.599048        -0.461038
 H        -2.155213        -0.123131         0.589195
 H        -1.947158         1.125963         2.680333
 H        -2.096575         3.686686         1.005253
 H        -0.527206         4.908430         2.584738
 H        -1.141483         3.466363         3.633706
 H         1.480639         4.059795         3.035174
 H         1.126819         2.406027         3.318699
 H        -0.124132         3.340535        -0.362368
