19
Iteration:   856
 O         0.339977         0.317094         0.619380
 C        -0.576858         1.382377         0.628826
 C        -2.006908         0.941013         0.345252
 C        -1.657896         1.647243         1.642864
 C        -1.418135         3.159360         1.513990
 C        -0.581978         3.739210         2.722503
 C         0.856283         3.257900         2.587513
 O         1.046708         2.799214         1.243126
 C        -0.233440         2.936587         0.526211
 H         1.031575         0.621239         1.360485
 H        -2.559643         1.329816        -0.488820
 H        -2.069515        -0.083808         0.598460
 H        -1.947258         1.379247         2.600326
 H        -2.254496         3.762893         1.162133
 H        -0.552188         4.835051         2.580136
 H        -1.094567         3.487238         3.688537
 H         1.538203         4.155658         2.769098
 H         1.162507         2.493449         3.323260
 H         0.132393         3.488961        -0.373693
