19
Iteration:  3487
 O         0.295842         0.130251         0.582667
 C        -0.573475         1.305622         0.487720
 C        -1.956003         1.098601         0.230721
 C        -1.739432         1.572259         1.634268
 C        -1.366932         3.077377         1.588622
 C        -0.618092         3.577733         2.859203
 C         0.898286         3.768957         2.395900
 O         1.058663         2.857301         1.395708
 C        -0.164440         2.821170         0.616613
 H         0.847271         0.199909         1.354708
 H        -2.551675         1.832205        -0.436013
 H        -2.371642         0.109328         0.074449
 H        -2.060918         0.892645         2.469690
 H        -2.194199         3.736445         1.554801
 H        -1.059108         4.368379         3.436751
 H        -0.580653         2.851733         3.653650
 H         1.187709         4.737374         2.020538
 H         1.520428         3.502555         3.364428
 H        -0.017223         3.399863        -0.275895
