19
Iteration:  1424charge 0 multiplicity 1
 O         0.314109         0.266078         0.632423
 C        -0.591803         1.325039         0.595503
 C        -1.972894         1.052308         0.342633
 C        -1.650359         1.597460         1.674282
 C        -1.347868         3.071559         1.563260
 C        -0.682613         3.736674         2.751546
 C         0.911604         3.408968         2.539723
 O         1.009232         2.880546         1.261359
 C        -0.199009         2.828273         0.501538
 H         1.242295         0.536231         0.845329
 H        -2.659517         1.604721        -0.236708
 H        -2.166366        -0.061663         0.246165
 H        -1.684714         1.054764         2.657286
 H        -2.164638         3.764718         1.092150
 H        -0.747230         4.823653         2.785493
 H        -1.051739         3.385342         3.778580
 H         1.474010         4.299385         2.734871
 H         1.257474         2.660584         3.293940
 H        -0.131751         3.438042        -0.489433
