19
Iteration:   717charge 0 multiplicity 1
 O         0.356089         0.260763         0.690221
 C        -0.529745         1.350305         0.716802
 C        -1.940552         1.097857         0.346204
 C        -1.743332         1.690840         1.766198
 C        -1.388366         3.158609         1.487292
 C        -0.642666         3.649884         2.746502
 C         0.818537         3.149873         2.526810
 O         1.073792         3.017154         1.132812
 C        -0.228793         2.819179         0.508509
 H         1.229315         0.654946         0.840048
 H        -2.332630         1.762395        -0.394260
 H        -2.086386         0.056895         0.140250
 H        -2.112398         1.318689         2.697349
 H        -2.007482         3.923801         1.000650
 H        -0.789348         4.652189         2.926219
 H        -1.076549         3.039943         3.569436
 H         1.538957         3.845855         2.949040
 H         0.991548         2.183984         3.044124
 H        -0.224893         3.219138        -0.489263
