19
Iteration:  1116charge 0 multiplicity 1
 O         0.470402         0.373428         0.524424
 C        -0.560064         1.302993         0.691605
 C        -1.989305         1.099802         0.409065
 C        -1.709271         1.682356         1.735981
 C        -1.389152         3.109411         1.501322
 C        -0.650049         3.812608         2.649191
 C         0.802310         3.154203         2.615509
 O         1.008378         2.881691         1.215149
 C        -0.214660         2.729868         0.615918
 H         1.212299         1.009331         0.746465
 H        -2.437580         1.614593        -0.486104
 H        -2.167800        -0.036177         0.407497
 H        -2.104119         1.143300         2.640324
 H        -2.250378         3.753338         1.187561
 H        -0.574405         4.888391         2.286190
 H        -1.009189         3.698874         3.673414
 H         1.414247         4.011359         2.952357
 H         1.006480         2.253886         3.265897
 H        -0.076923         2.984344        -0.498408
