19
Iteration:  3021
 O         0.217795         0.208513         0.556786
 C        -0.577639         1.319359         0.579804
 C        -2.014907         1.030104         0.247183
 C        -1.663574         1.559031         1.597937
 C        -1.342488         3.070479         1.529933
 C        -0.546355         3.590336         2.882661
 C         0.926384         3.765910         2.548447
 O         1.008600         2.906920         1.337815
 C        -0.161213         2.756475         0.562783
 H         0.863811         0.019193         1.207638
 H        -2.595293         1.654627        -0.497947
 H        -2.450547        -0.068207         0.299162
 H        -1.784186         1.124702         2.540811
 H        -2.136945         3.661105         1.085254
 H        -1.072793         4.429809         3.399981
 H        -0.661754         2.826127         3.608554
 H         1.307347         4.837141         2.301688
 H         1.580966         3.356334         3.391204
 H         0.031149         3.309095        -0.406503
