19
Iteration:   534
 O         0.342967         0.361386         0.494985
 C        -0.607765         1.290442         0.604397
 C        -2.035875         1.050246         0.300512
 C        -1.754344         1.568474         1.742171
 C        -1.393304         3.056301         1.583033
 C        -0.541230         3.819890         2.667999
 C         0.857200         3.383938         2.564859
 O         1.055673         2.872918         1.317715
 C        -0.145215         2.695152         0.643355
 H         1.179406         0.829307         0.902230
 H        -2.605534         1.726061        -0.428826
 H        -2.396184        -0.044189         0.347325
 H        -2.024018         1.028842         2.649435
 H        -2.226892         3.693024         1.144781
 H        -0.522749         4.923234         2.290722
 H        -0.909046         3.778583         3.747854
 H         1.488292         4.247762         2.690532
 H         1.206289         2.710121         3.416739
 H         0.026747         3.078238        -0.408594
