19
Iteration:  3831
 O         0.339478         0.222850         0.415023
 C        -0.652591         1.162950         0.693529
 C        -1.974671         1.177403         0.155817
 C        -1.757875         1.556797         1.647759
 C        -1.273203         2.988566         1.641148
 C        -0.599364         3.664728         2.890885
 C         0.856189         3.935197         2.443231
 O         1.035095         2.759612         1.397148
 C        -0.207480         2.669342         0.693775
 H         1.125188         0.455487         0.943644
 H        -2.048262         1.969177        -0.687686
 H        -2.532856         0.184021         0.101147
 H        -2.092834         0.986690         2.488914
 H        -2.008429         3.666713         1.240434
 H        -1.025128         4.590857         3.322549
 H        -0.478751         2.854490         3.538188
 H         1.036123         4.752756         1.775925
 H         1.627177         3.750999         3.129598
 H        -0.141374         3.295277        -0.204919
