19
Iteration:  4403
 O         0.392434         0.220795         0.513569
 C        -0.587328         1.219827         0.639571
 C        -2.091850         1.133602         0.166620
 C        -1.770820         1.533681         1.599270
 C        -1.237306         3.075505         1.703763
 C        -0.660254         3.584699         2.879876
 C         0.892831         3.736925         2.415955
 O         1.089167         2.865309         1.379382
 C        -0.216756         2.698189         0.662153
 H         1.103724         0.864670         0.233828
 H        -2.672022         1.885077        -0.534584
 H        -2.710747         0.166704         0.114998
 H        -1.928979         0.975258         2.555178
 H        -2.056097         3.740934         1.268238
 H        -1.105230         4.524085         3.083433
 H        -0.856454         3.041652         3.828261
 H         1.047177         4.830508         2.133120
 H         1.689789         3.634326         3.179758
 H        -0.004578         3.254275        -0.317777
