19
Iteration:  3313charge 0 multiplicity 1
 O         0.175131         0.154976         0.583395
 C        -0.563482         1.232364         0.543605
 C        -2.080332         1.092981         0.184358
 C        -1.667691         1.556092         1.585060
 C        -1.263271         3.002339         1.623232
 C        -0.587285         3.582696         2.824581
 C         0.925225         3.828119         2.490916
 O         1.046759         2.972287         1.354027
 C        -0.133399         2.708657         0.700754
 H         1.045668         0.396421         1.028924
 H        -2.373380         1.906917        -0.463953
 H        -2.435102         0.096685        -0.046927
 H        -1.797585         1.006127         2.557101
 H        -2.108922         3.656620         1.273522
 H        -1.154099         4.444168         2.985252
 H        -0.610075         2.768764         3.566753
 H         0.974499         4.874630         2.204843
 H         1.593561         3.523564         3.335723
 H        -0.095199         3.342186        -0.235879
