19
Iteration:  2376
 O         0.215158         0.177885         0.560597
 C        -0.521592         1.320687         0.633494
 C        -1.946843         0.997499         0.286254
 C        -1.615236         1.641734         1.712874
 C        -1.386759         3.074478         1.574022
 C        -0.612589         3.706367         2.774077
 C         0.841166         3.402389         2.594400
 O         1.026342         3.048676         1.213087
 C        -0.163684         2.798208         0.546711
 H         1.137105         0.442047         0.821673
 H        -2.499705         1.502916        -0.420406
 H        -2.071107        -0.076971         0.303223
 H        -2.057998         1.330724         2.660904
 H        -2.217445         3.770018         1.310933
 H        -0.805346         4.787799         2.770111
 H        -0.959731         3.233699         3.756167
 H         1.375767         4.350550         2.793750
 H         1.340841         2.606532         3.202652
 H        -0.093622         3.230001        -0.412272
