19
Iteration:  3182
 O         0.263067         0.078639         0.492374
 C        -0.581988         1.205557         0.651099
 C        -2.013118         1.162456         0.146673
 C        -1.747053         1.536176         1.621813
 C        -1.289430         3.002228         1.634448
 C        -0.571738         3.595950         2.925410
 C         0.830348         3.909265         2.421667
 O         1.116375         2.935693         1.333615
 C        -0.129086         2.703724         0.667581
 H         0.819369         0.238016         1.254055
 H        -2.504077         1.854466        -0.452039
 H        -2.381393         0.135399        -0.170632
 H        -2.354146         1.152003         2.427236
 H        -2.145988         3.646909         1.280927
 H        -1.082013         4.500783         3.303480
 H        -0.594228         3.007548         3.933014
 H         0.925008         4.997560         2.048749
 H         1.548236         3.710112         3.238329
 H        -0.121381         3.229998        -0.273424
