19
Iteration:  1903charge 0 multiplicity 1
 O         0.322304         0.218495         0.692590
 C        -0.579808         1.311194         0.572520
 C        -1.976346         0.977088         0.238565
 C        -1.636589         1.656487         1.626402
 C        -1.385829         3.110555         1.632388
 C        -0.638281         3.641847         2.814519
 C         0.913934         3.396171         2.526550
 O         1.056368         3.021791         1.179323
 C        -0.234309         2.825075         0.525578
 H         0.949454         0.555353         1.288379
 H        -2.522497         1.574129        -0.499514
 H        -2.490020        -0.065361         0.369100
 H        -1.944609         1.153467         2.646025
 H        -2.115130         3.922232         1.476692
 H        -0.947630         4.589607         3.052318
 H        -0.893145         3.019060         3.637226
 H         1.586664         4.278159         2.557844
 H         1.300338         2.693836         3.292601
 H        -0.382806         3.512399        -0.385007
