19
Iteration:   278
 O         0.086280         0.082074         0.386341
 C        -0.618065         1.173904         0.724776
 C        -1.967128         1.100471         0.159362
 C        -1.801149         1.562108         1.687938
 C        -1.307205         3.017805         1.634566
 C        -0.562656         3.583043         2.874462
 C         0.860003         3.975390         2.347790
 O         1.236730         2.951309         1.383586
 C        -0.062720         2.687038         0.769311
 H         0.820072        -0.064163         1.034049
 H        -2.254024         1.791489        -0.586475
 H        -2.436314         0.085188         0.129971
 H        -2.345759         1.115829         2.546709
 H        -1.846640         3.786369         1.061848
 H        -1.166315         4.488599         3.171216
 H        -0.610477         2.922250         3.760602
 H         0.751348         4.921947         1.916961
 H         1.641784         4.030123         3.077677
 H        -0.062628         3.278610        -0.176261
