19
Iteration:   975
 O         0.353183         0.320489         0.715506
 C        -0.604919         1.310809         0.646283
 C        -2.039784         1.107819         0.265620
 C        -1.651358         1.594189         1.703147
 C        -1.324201         3.099327         1.503293
 C        -0.645563         3.619118         2.762454
 C         0.839963         3.345482         2.601695
 O         1.082741         2.970159         1.153241
 C        -0.211811         2.816555         0.513120
 H         1.150959         0.551564         1.312914
 H        -2.626167         1.882388        -0.498318
 H        -2.356598         0.060101         0.220669
 H        -1.907732         1.185636         2.646554
 H        -2.224643         3.658003         1.230803
 H        -0.746889         4.759240         2.820376
 H        -1.023031         2.994751         3.609979
 H         1.526268         4.208550         2.780177
 H         1.192858         2.457072         3.175615
 H        -0.156277         2.975457        -0.516962
