19
Iteration:  1118charge 0 multiplicity 1
 O         0.476808         0.370489         0.528665
 C        -0.562375         1.297842         0.696681
 C        -1.991514         1.106796         0.401825
 C        -1.690477         1.667532         1.725218
 C        -1.380482         3.130385         1.505802
 C        -0.629215         3.814552         2.648320
 C         0.802871         3.169066         2.616270
 O         1.000046         2.866537         1.214252
 C        -0.248202         2.731193         0.601311
 H         1.268497         1.003338         0.807233
 H        -2.438904         1.641142        -0.531852
 H        -2.172942        -0.058529         0.387154
 H        -2.110998         1.155427         2.654327
 H        -2.231762         3.728755         1.230339
 H        -0.588186         4.869540         2.324150
 H        -1.088928         3.666483         3.689679
 H         1.422457         4.017609         2.963136
 H         0.966095         2.276174         3.302574
 H        -0.110804         2.997200        -0.428580
