19
Iteration:  3314charge 0 multiplicity 1
 O         0.178563         0.154699         0.578603
 C        -0.563378         1.234149         0.546037
 C        -2.080506         1.087467         0.185725
 C        -1.671248         1.551102         1.585410
 C        -1.264701         3.018508         1.631392
 C        -0.588715         3.576110         2.821748
 C         0.939062         3.833986         2.496039
 O         1.041068         2.970911         1.350758
 C        -0.129406         2.706043         0.699779
 H         1.045452         0.349412         1.017594
 H        -2.373590         1.893246        -0.497228
 H        -2.389373         0.132326        -0.042508
 H        -1.843821         1.019402         2.568531
 H        -2.112202         3.683103         1.238937
 H        -1.181137         4.466817         3.006294
 H        -0.598539         2.753625         3.599406
 H         0.952379         4.857868         2.182742
 H         1.550643         3.531027         3.326615
 H        -0.109741         3.306419        -0.229405
