19
Iteration:   720
 O         0.344766         0.245832         0.674668
 C        -0.558211         1.356597         0.733266
 C        -1.940144         1.100974         0.352499
 C        -1.734004         1.693386         1.779658
 C        -1.377010         3.156938         1.478394
 C        -0.656600         3.633277         2.739731
 C         0.816035         3.153992         2.525780
 O         1.083838         3.049287         1.138685
 C        -0.208728         2.795123         0.513525
 H         1.290143         0.650597         0.870166
 H        -2.344475         1.866270        -0.492821
 H        -2.081823         0.046304         0.135597
 H        -2.052557         1.315226         2.737285
 H        -2.052715         3.794023         0.889035
 H        -0.794198         4.757155         2.945628
 H        -1.025011         3.011888         3.579447
 H         1.526528         3.833925         2.922241
 H         0.949497         2.164433         3.020994
 H        -0.220345         3.257882        -0.462697
