19
Iteration:  3236charge 0 multiplicity 1
 O         0.318374         0.262508         0.512323
 C        -0.619473         1.248441         0.575235
 C        -2.056497         1.028622         0.186455
 C        -1.786589         1.651859         1.613951
 C        -1.337535         3.082379         1.577044
 C        -0.620853         3.578886         2.960759
 C         0.871128         3.773638         2.359700
 O         1.138008         2.788681         1.434302
 C        -0.139272         2.704211         0.671338
 H         1.084436         0.775389         0.755009
 H        -2.615028         1.436430        -0.610750
 H        -2.542555        -0.006731         0.424074
 H        -1.845467         1.042685         2.524519
 H        -2.005362         3.804373         1.022543
 H        -0.945888         4.574216         3.200560
 H        -0.648489         2.819042         3.834418
 H         0.969873         4.792410         2.014403
 H         1.594148         3.879447         3.195737
 H         0.071060         3.334357        -0.205619
