19
Iteration:  2331charge 0 multiplicity 1
 O         0.472678         0.431298         0.576821
 C        -0.611750         1.233062         0.656326
 C        -2.032698         1.135057         0.287623
 C        -1.683889         1.545414         1.746523
 C        -1.360565         3.100973         1.594920
 C        -0.595895         3.803085         2.723239
 C         0.880848         3.332318         2.571613
 O         0.988498         2.810726         1.241583
 C        -0.255731         2.717924         0.544406
 H         1.171463         1.180215         0.733331
 H        -2.402108         1.709659        -0.444016
 H        -2.434692         0.037005         0.368818
 H        -2.223418         0.844368         2.488770
 H        -2.253409         3.706327         1.173460
 H        -0.614328         4.911037         2.492177
 H        -1.177914         3.494282         3.691441
 H         1.549230         4.179999         2.588969
 H         1.275366         2.606418         3.364921
 H        -0.200026         3.138745        -0.414568
