19
Iteration:  3441charge 0 multiplicity 1
 O         0.326370         0.138582         0.500311
 C        -0.582711         1.241333         0.683966
 C        -2.064968         1.153657         0.268151
 C        -1.841078         1.596422         1.623478
 C        -1.369420         3.002118         1.555766
 C        -0.597520         3.549992         2.824867
 C         0.877724         3.777000         2.465890
 O         1.136849         2.980992         1.307096
 C        -0.094750         2.692452         0.675658
 H         1.173912         0.392033         0.886455
 H        -2.491931         1.821000        -0.528644
 H        -2.409962         0.143850         0.167811
 H        -2.410203         1.284515         2.518960
 H        -1.818057         3.841989         1.115273
 H        -0.951864         4.343090         3.512340
 H        -0.668466         2.724421         3.536318
 H         0.965862         4.856267         2.309470
 H         1.557050         3.495473         3.309733
 H        -0.133199         3.119584        -0.289638
