19
Iteration:  3316charge 0 multiplicity 1
 O         0.190884         0.149225         0.567164
 C        -0.569822         1.242294         0.555327
 C        -2.073776         1.086250         0.190433
 C        -1.680491         1.537713         1.590313
 C        -1.273486         3.053618         1.644173
 C        -0.591280         3.560695         2.821795
 C         0.958177         3.844263         2.503100
 O         1.035310         2.966182         1.345077
 C        -0.122254         2.702945         0.690704
 H         1.033343         0.248822         0.991542
 H        -2.389860         1.854130        -0.566642
 H        -2.314553         0.129010        -0.040926
 H        -1.949609         1.050844         2.558647
 H        -2.085826         3.727133         1.174807
 H        -1.225575         4.516030         3.086318
 H        -0.584619         2.758638         3.665720
 H         0.934557         4.854555         2.131704
 H         1.489850         3.542180         3.322181
 H        -0.142840         3.230630        -0.234724
