19
Iteration:   170charge 0 multiplicity 1
 O         0.348490         0.225816         0.557026
 C        -0.583594         1.232383         0.604172
 C        -2.012275         1.099211         0.341902
 C        -1.747180         1.631358         1.673576
 C        -1.346671         3.094042         1.616713
 C        -0.615692         3.762393         2.812260
 C         0.870904         3.512052         2.571704
 O         1.044705         2.855691         1.191570
 C        -0.179596         2.721339         0.570681
 H         1.292017         0.713283         0.707986
 H        -2.477201         1.712023        -0.457805
 H        -2.416043         0.091255         0.340057
 H        -2.200037         1.181182         2.583063
 H        -2.110829         3.874802         1.195560
 H        -0.931892         4.770093         3.021489
 H        -0.932275         3.234108         3.728350
 H         1.498996         4.481654         2.392395
 H         1.472219         2.925737         3.302205
 H         0.031189         3.168040        -0.452639
