19
Iteration:  1415
 O         0.331287         0.209142         0.564681
 C        -0.526421         1.289830         0.560845
 C        -1.991806         1.016244         0.336294
 C        -1.717654         1.668009         1.668256
 C        -1.352429         3.131583         1.569626
 C        -0.672969         3.755900         2.794076
 C         0.882008         3.415607         2.572648
 O         1.089729         2.908047         1.196256
 C        -0.244319         2.815603         0.625137
 H         1.161068         0.489154         1.029042
 H        -2.633269         1.351126        -0.507313
 H        -2.115280        -0.117684         0.596971
 H        -1.899167         1.091820         2.657325
 H        -2.230632         3.650194         1.213701
 H        -0.786483         4.794016         2.648164
 H        -1.173245         3.449821         3.724263
 H         1.538287         4.274485         2.642595
 H         1.205234         2.664948         3.264021
 H        -0.168957         3.461284        -0.339864
