19
Iteration:     8
 O         0.341792         0.320295         0.603874
 C        -0.610171         1.291507         0.675517
 C        -1.987763         1.014779         0.314934
 C        -1.699716         1.708155         1.717259
 C        -1.428102         3.211263         1.559169
 C        -0.546392         3.771141         2.723241
 C         0.886909         3.150717         2.606616
 O         1.082000         2.957286         1.185205
 C        -0.223107         2.754611         0.529107
 H         1.085097         0.721478         0.916298
 H        -2.621508         1.580959        -0.526134
 H        -2.062020        -0.072910         0.196753
 H        -1.864485         1.095494         2.659726
 H        -2.262207         3.832003         1.283801
 H        -0.651682         4.914867         2.677258
 H        -1.122584         3.484394         3.676668
 H         1.612431         3.922511         2.881793
 H         0.751332         2.222216         3.251306
 H        -0.192537         3.133431        -0.522910
