19
Iteration:  4785
 O         0.359612         0.105953         0.255541
 C        -0.556542         1.202939         0.673565
 C        -2.053272         1.142326         0.300249
 C        -1.737960         1.679584         1.657635
 C        -1.346685         3.070713         1.672566
 C        -0.609503         3.554971         2.959785
 C         0.801165         3.820906         2.397136
 O         1.020991         2.887964         1.437828
 C        -0.082751         2.661853         0.660481
 H         1.192135         0.605824         0.486941
 H        -2.317607         1.840949        -0.567065
 H        -2.388787         0.096232         0.271763
 H        -2.239871         1.097277         2.381855
 H        -2.045309         3.831319         1.331250
 H        -1.117092         4.517697         3.204567
 H        -0.594534         2.836461         3.860653
 H         1.031319         4.817899         1.843293
 H         1.495410         3.762153         3.194997
 H         0.070084         3.177301        -0.324953
