19
Iteration:  3954
 O         0.310603         0.174667         0.640188
 C        -0.625162         1.264506         0.591164
 C        -1.987366         1.138074         0.102797
 C        -1.648352         1.624965         1.572461
 C        -1.342573         3.066306         1.707540
 C        -0.562579         3.526571         2.909701
 C         0.813047         3.760288         2.337026
 O         1.065326         2.821508         1.331362
 C        -0.214672         2.800129         0.659408
 H         0.949671         0.349500         1.331527
 H        -2.634778         1.929783        -0.433238
 H        -2.476946         0.182854        -0.003581
 H        -1.778555         1.046432         2.527946
 H        -2.163548         3.555441         1.306094
 H        -1.010500         4.396626         3.370147
 H        -0.371698         2.725777         3.673754
 H         1.086656         4.750834         1.930822
 H         1.529948         3.651172         3.104100
 H        -0.183506         3.392294        -0.281125
