19
Iteration:  4900
 O         0.316127         0.229691         0.507967
 C        -0.566322         1.227889         0.680016
 C        -2.019262         1.086944         0.230676
 C        -1.841346         1.673031         1.590673
 C        -1.306911         3.085837         1.637617
 C        -0.580652         3.408125         2.962519
 C         0.878270         3.690762         2.498567
 O         1.077321         3.026700         1.228282
 C        -0.138058         2.710170         0.590602
 H         1.135404         0.512118         0.958965
 H        -2.508083         1.600362        -0.541650
 H        -2.365564         0.043034         0.316397
 H        -2.169551         1.185490         2.458966
 H        -2.030404         3.749458         1.263097
 H        -1.155822         4.225284         3.446736
 H        -0.601177         2.612422         3.658935
 H         0.844815         4.789142         2.240547
 H         1.612251         3.569067         3.234394
 H        -0.014272         3.115785        -0.475718
