19
Iteration:  2792charge 0 multiplicity 1
 O         0.383456         0.213783         0.593419
 C        -0.617885         1.263499         0.724234
 C        -2.008957         1.157693         0.167871
 C        -1.805931         1.664495         1.610410
 C        -1.338740         3.083410         1.566061
 C        -0.561844         3.447176         2.891227
 C         0.894654         3.779890         2.377449
 O         1.045305         2.821064         1.330256
 C        -0.216533         2.720937         0.645399
 H         1.174749         0.739906         0.976755
 H        -2.375986         1.895341        -0.611433
 H        -2.365809         0.113415        -0.015321
 H        -2.185928         1.156886         2.527138
 H        -2.170559         3.768939         1.374719
 H        -1.037727         4.193892         3.535720
 H        -0.358321         2.545953         3.485114
 H         1.017388         4.893220         1.989763
 H         1.645013         3.635394         3.190724
 H        -0.191096         3.183405        -0.388817
