19
Iteration:  2905charge 0 multiplicity 1
 O         0.239445         0.074390         0.515395
 C        -0.573339         1.274156         0.617383
 C        -2.066776         1.175747         0.195374
 C        -1.729968         1.538467         1.639327
 C        -1.295945         3.045617         1.613351
 C        -0.589357         3.506635         2.836675
 C         0.890592         3.925879         2.434468
 O         1.094077         2.906935         1.406574
 C        -0.150619         2.766261         0.653988
 H         0.947078         0.239804         1.113511
 H        -2.531339         1.696073        -0.570762
 H        -2.402016         0.110539         0.009579
 H        -1.980263         0.727416         2.294911
 H        -2.028501         3.840596         1.354150
 H        -1.195421         4.367086         3.263713
 H        -0.562664         2.788035         3.727482
 H         1.212312         4.898887         1.934807
 H         1.599556         3.644770         3.245265
 H        -0.061418         3.284485        -0.375538
