19
Iteration:  4444charge 0 multiplicity 1
 O         0.235924         0.114985         0.509384
 C        -0.578665         1.312456         0.662832
 C        -2.012759         1.131234         0.201874
 C        -1.621206         1.535727         1.599817
 C        -1.353417         2.981788         1.577746
 C        -0.632628         3.568662         2.874454
 C         0.855083         3.826932         2.448987
 O         1.054676         2.898738         1.419325
 C        -0.076970         2.803254         0.694392
 H         0.510386         0.008162        -0.411549
 H        -2.631407         1.844385        -0.439357
 H        -2.292775         0.025243         0.167471
 H        -1.616450         0.855061         2.498952
 H        -2.069196         3.717264         1.190509
 H        -1.207641         4.543570         3.100628
 H        -0.663526         2.795616         3.707446
 H         1.083015         4.926074         2.207119
 H         1.598231         3.760725         3.235901
 H        -0.162236         3.473736        -0.195600
