19
Iteration:  1551charge 0 multiplicity 1
 O         0.381419         0.252706         0.586818
 C        -0.553561         1.352692         0.624921
 C        -1.971040         1.010041         0.385948
 C        -1.614841         1.639621         1.760699
 C        -1.376093         3.138597         1.550404
 C        -0.638275         3.825344         2.724467
 C         0.725470         3.119329         2.564851
 O         1.057504         3.082053         1.166551
 C        -0.203651         2.799273         0.496012
 H         1.014493         0.317605         1.316814
 H        -2.662986         1.571651        -0.281313
 H        -1.907571        -0.143708         0.370995
 H        -1.802168         1.058960         2.688252
 H        -2.175669         3.736603         1.195328
 H        -0.634767         4.931173         2.608802
 H        -0.990091         3.547903         3.718625
 H         1.565665         3.620181         3.091642
 H         0.439455         2.240697         3.067591
 H        -0.132934         3.251643        -0.494389
