19
Iteration:  2542charge 0 multiplicity 1
 O         0.322523         0.235964         0.657574
 C        -0.521632         1.279245         0.612632
 C        -1.998645         1.014421         0.283668
 C        -1.596229         1.589225         1.721509
 C        -1.388888         3.099609         1.627806
 C        -0.570135         3.796857         2.744084
 C         0.767440         3.107471         2.622625
 O         0.996314         3.228612         1.093652
 C        -0.154567         2.818303         0.547532
 H         1.157673         0.657025         1.019181
 H        -2.569506         1.647332        -0.344544
 H        -2.325245         0.012281         0.258289
 H        -1.845376         0.990281         2.655483
 H        -2.261751         3.676777         1.179728
 H        -0.358351         4.866845         2.424915
 H        -1.170652         3.692404         3.725886
 H         1.643832         3.425479         3.272141
 H         0.632967         2.050733         2.921110
 H        -0.301780         3.195017        -0.422077
