19
Iteration:  2956
 O         0.324515         0.213970         0.436694
 C        -0.541192         1.221572         0.631709
 C        -2.089087         1.176716         0.194168
 C        -1.744919         1.581148         1.699910
 C        -1.354829         3.011021         1.577340
 C        -0.563871         3.591467         2.845096
 C         0.847262         3.889333         2.346662
 O         1.053120         2.770281         1.494207
 C        -0.129926         2.674772         0.719174
 H         1.103375         0.376995         1.011584
 H        -2.441016         2.084361        -0.446327
 H        -2.645612         0.204157        -0.039732
 H        -2.232542         1.112483         2.484493
 H        -2.097559         3.688722         1.150182
 H        -0.919879         4.424460         3.480255
 H        -0.363677         2.740661         3.376003
 H         1.016687         4.767129         1.706702
 H         1.681816         4.010715         3.055400
 H        -0.075805         3.175083        -0.203161
