19
Iteration:   549charge 0 multiplicity 1
 O         0.445708         0.237053         0.471824
 C        -0.623775         1.201781         0.710986
 C        -2.106577         1.210260         0.317003
 C        -1.701569         1.556048         1.717051
 C        -1.330656         3.030969         1.614968
 C        -0.645762         3.845207         2.678149
 C         0.901150         3.460609         2.677680
 O         1.049062         2.871350         1.265481
 C        -0.223530         2.670222         0.533498
 H         1.202229         0.659760         0.742282
 H        -2.462494         2.040243        -0.212296
 H        -2.362474         0.273561        -0.028576
 H        -2.003743         1.037693         2.615862
 H        -2.178630         3.713502         1.229600
 H        -0.709898         4.826284         2.289863
 H        -1.165757         3.845763         3.588198
 H         1.642788         4.393138         2.753979
 H         1.221543         2.689620         3.362419
 H        -0.180163         3.171350        -0.496504
