19
Iteration:  4368charge 0 multiplicity 1
 O         0.304335         0.268483         0.547292
 C        -0.602931         1.293944         0.604464
 C        -1.958312         1.086942         0.178388
 C        -1.658721         1.590868         1.596423
 C        -1.301880         3.098921         1.667886
 C        -0.613458         3.503563         2.937660
 C         0.892542         3.740944         2.369092
 O         0.999357         2.828633         1.343895
 C        -0.199452         2.791967         0.606325
 H         0.662633        -0.153330         1.363643
 H        -2.489498         1.728839        -0.598381
 H        -2.220439        -0.005116         0.353947
 H        -1.921281         1.041477         2.499847
 H        -2.081923         3.877438         1.518616
 H        -1.085787         4.428613         3.333009
 H        -0.678260         2.643792         3.616481
 H         0.912269         4.819535         2.001761
 H         1.588604         3.523591         3.144704
 H        -0.087740         3.351691        -0.386493
