19
Iteration:  3378
 O         0.270073         0.240457         0.614073
 C        -0.595647         1.258353         0.584750
 C        -2.117643         1.126145         0.154240
 C        -1.757271         1.549032         1.595985
 C        -1.339634         3.019992         1.643458
 C        -0.543816         3.501264         2.867695
 C         0.858974         3.894386         2.377393
 O         1.085615         2.835777         1.433290
 C        -0.116322         2.687756         0.622232
 H         1.102238         0.606677         0.956492
 H        -2.297977         1.959544        -0.585483
 H        -2.620217         0.201638        -0.035549
 H        -1.926443         0.970575         2.540479
 H        -2.055963         3.759819         1.248200
 H        -0.931249         4.242756         3.521917
 H        -0.247628         2.646566         3.457537
 H         1.083927         4.822105         1.819005
 H         1.661014         3.969973         3.187012
 H         0.021076         3.245098        -0.377290
