19
Iteration:  3911
 O         0.355480         0.188808         0.428545
 C        -0.636941         1.176285         0.624740
 C        -2.034593         1.049523         0.238416
 C        -1.817267         1.635173         1.675049
 C        -1.283165         3.110574         1.628508
 C        -0.694307         3.582171         2.902198
 C         0.863382         3.808427         2.437143
 O         1.161859         2.872111         1.315131
 C        -0.149357         2.675908         0.674177
 H         1.155129         0.526195         0.892393
 H        -2.415011         1.742090        -0.593853
 H        -2.555932         0.129231         0.073271
 H        -2.194483         1.182288         2.635118
 H        -1.846126         4.038315         1.308030
 H        -1.130126         4.481999         3.329791
 H        -0.776909         2.863152         3.795208
 H         1.121896         4.781423         2.152638
 H         1.633355         3.637409         3.189227
 H        -0.090092         3.272237        -0.214676
