19
Iteration:  4497charge 0 multiplicity 1
 O         0.285427         0.176118         0.478362
 C        -0.561669         1.198492         0.688099
 C        -1.908362         1.240323         0.186097
 C        -1.729179         1.524125         1.666677
 C        -1.337500         3.013641         1.676667
 C        -0.573593         3.513377         2.863935
 C         0.790378         3.896243         2.343133
 O         1.108706         2.896231         1.456013
 C        -0.114613         2.700313         0.639202
 H         0.003239        -0.271007        -0.322764
 H        -2.364740         2.018085        -0.386012
 H        -2.174020         0.174217         0.000362
 H        -2.629602         1.115717         2.265607
 H        -2.016563         3.807367         1.380517
 H        -1.219635         4.169854         3.599113
 H        -0.520596         2.684220         3.598575
 H         0.621135         4.891153         1.893188
 H         1.467202         4.016146         3.230318
 H        -0.094875         3.289769        -0.331473
