19
Iteration:  3330
 O         0.244541         0.087146         0.467017
 C        -0.585110         1.242267         0.693273
 C        -1.968417         1.111889         0.175789
 C        -1.784608         1.578767         1.633023
 C        -1.334384         3.090313         1.591875
 C        -0.582712         3.589362         2.948400
 C         0.832065         3.838368         2.443603
 O         1.123922         2.926240         1.344249
 C        -0.150888         2.725453         0.610873
 H         0.988545         0.288457         1.112516
 H        -2.535453         1.697147        -0.561094
 H        -2.197710        -0.027796         0.210212
 H        -2.286048         0.997908         2.388359
 H        -2.024726         3.867526         1.255864
 H        -1.001484         4.530756         3.465175
 H        -0.600097         2.732918         3.659365
 H         1.161266         4.881505         2.198060
 H         1.682917         3.601491         3.136939
 H        -0.045722         3.190258        -0.377378
