19
Iteration:  3930charge 0 multiplicity 1
 O         0.307904         0.268396         0.539460
 C        -0.627231         1.262911         0.690097
 C        -2.019361         1.170507         0.219214
 C        -1.785305         1.526621         1.607164
 C        -1.332609         3.038634         1.633352
 C        -0.527785         3.561980         2.873277
 C         0.858248         3.783396         2.453621
 O         1.056967         2.866077         1.355806
 C        -0.158727         2.666022         0.627559
 H         1.252506         0.433198         0.695445
 H        -2.483258         1.717012        -0.708086
 H        -2.271228         0.086458         0.102920
 H        -2.341333         0.974530         2.319324
 H        -2.074039         3.569970         1.133652
 H        -0.944018         4.552185         3.150808
 H        -0.485779         2.889457         3.685673
 H         1.048262         4.874105         2.089380
 H         1.753927         3.643971         3.030176
 H        -0.033502         3.079456        -0.433368
