19
Iteration:  2461
 O         0.390425         0.323668         0.626712
 C        -0.595078         1.302181         0.604587
 C        -1.976449         1.032870         0.328406
 C        -1.660360         1.655538         1.675239
 C        -1.347360         3.086847         1.635852
 C        -0.580388         3.766280         2.761389
 C         0.811538         3.234870         2.580314
 O         1.025790         2.974161         1.173707
 C        -0.266213         2.818070         0.492781
 H         1.239687         0.595617         0.962857
 H        -2.373059         1.493389        -0.571065
 H        -2.353561        -0.019978         0.622698
 H        -1.755975         0.991799         2.559248
 H        -2.179153         3.712317         1.342032
 H        -0.709578         4.862253         2.683718
 H        -1.085548         3.435114         3.714799
 H         1.529324         3.921418         2.952170
 H         0.844252         2.282517         3.105192
 H        -0.293186         3.304325        -0.493732
