19
Iteration:   699charge 0 multiplicity 1
 O         0.452344         0.376302         0.768783
 C        -0.636625         1.312346         0.635012
 C        -1.996655         0.984310         0.254693
 C        -1.749113         1.737602         1.579369
 C        -1.374641         3.206008         1.595935
 C        -0.545647         3.675003         2.800250
 C         0.866107         3.148213         2.595100
 O         1.003401         2.942542         1.137158
 C        -0.249998         2.771054         0.507950
 H         1.242089         0.943428         0.951875
 H        -2.550719         1.443821        -0.727947
 H        -2.322333         0.010081         0.613191
 H        -2.120128         1.183731         2.436213
 H        -2.291893         3.789619         1.317374
 H        -0.409317         4.841037         2.660890
 H        -0.926133         3.416401         3.809588
 H         1.632517         3.874122         2.805353
 H         1.053995         2.188729         3.120558
 H        -0.211277         3.294460        -0.470316
