19
Iteration:  2817charge 0 multiplicity 1
 O         0.339960         0.345350         0.697111
 C        -0.613991         1.320096         0.578185
 C        -2.037358         1.094929         0.199522
 C        -1.752830         1.651424         1.594422
 C        -1.307918         3.081644         1.602454
 C        -0.579294         3.415458         2.951044
 C         0.783738         3.648710         2.331219
 O         1.119888         2.800759         1.295947
 C        -0.172235         2.737370         0.577506
 H         1.085060         0.744031         1.212725
 H        -2.464356         1.783838        -0.495973
 H        -2.403853         0.120458         0.230075
 H        -2.047813         1.116027         2.413186
 H        -2.054650         3.888434         1.386549
 H        -0.910717         4.433438         3.376972
 H        -0.468784         2.602654         3.825764
 H         0.899269         4.793506         2.031045
 H         1.451737         3.578118         3.199296
 H        -0.133859         3.295347        -0.449454
