19
Iteration:   186charge 0 multiplicity 1
 O         0.468912         0.285285         0.555401
 C        -0.685313         1.228841         0.620500
 C        -2.195973         0.987553         0.229820
 C        -1.831666         1.642521         1.623022
 C        -1.311100         3.128611         1.566966
 C        -0.529849         3.728386         2.845575
 C         0.991073         3.595573         2.517907
 O         1.071035         2.846322         1.372550
 C        -0.223747         2.676440         0.579383
 H         1.246570         0.891506         0.485442
 H        -2.831315         1.483153        -0.549266
 H        -2.409738        -0.111881         0.373144
 H        -2.139994         1.136124         2.524556
 H        -2.062939         3.774606         1.211308
 H        -0.704706         4.841202         2.712972
 H        -0.836081         3.421282         3.861066
 H         1.418145         4.535576         2.438211
 H         1.463259         2.924816         3.281254
 H        -0.191330         3.233355        -0.348417
