19
Iteration:  4186
 O         0.231738         0.203334         0.611968
 C        -0.564648         1.320345         0.661668
 C        -2.021030         1.164208         0.169916
 C        -1.685598         1.503425         1.622544
 C        -1.357236         3.002458         1.615552
 C        -0.627174         3.580440         2.931058
 C         0.816061         3.742104         2.454379
 O         1.135125         2.964884         1.291963
 C        -0.060866         2.680777         0.660042
 H         0.364949         0.115244        -0.332272
 H        -2.733828         1.797398        -0.348882
 H        -2.190549         0.146828        -0.097509
 H        -1.800785         0.939049         2.500710
 H        -2.080035         3.669130         1.214333
 H        -1.132452         4.519425         3.094157
 H        -0.832078         2.858126         3.731729
 H         1.105045         4.731088         2.225158
 H         1.650774         3.524745         3.148022
 H        -0.060745         3.178050        -0.336675
