19
Iteration:  4160
 O         0.293793         0.079469         0.585255
 C        -0.531116         1.185949         0.532295
 C        -2.049509         1.182760         0.242032
 C        -1.577058         1.557561         1.602347
 C        -1.351978         3.036326         1.590135
 C        -0.576517         3.639145         2.929145
 C         0.861528         3.794192         2.523920
 O         1.010371         2.925741         1.348944
 C        -0.194060         2.754887         0.651960
 H         0.911610         0.223293        -0.140527
 H        -2.341337         1.974335        -0.551717
 H        -2.659169         0.238550         0.017493
 H        -2.127810         1.032077         2.453450
 H        -2.189233         3.741763         1.198116
 H        -1.116428         4.544585         3.121378
 H        -0.777746         2.860590         3.625240
 H         1.234552         4.817994         2.167153
 H         1.623372         3.367132         3.154954
 H        -0.246779         3.394650        -0.210954
