19
Iteration:  1747charge 0 multiplicity 1
 O         0.403654         0.393269         0.560391
 C        -0.632003         1.345820         0.647124
 C        -1.963386         0.912038         0.351697
 C        -1.707481         1.658362         1.686994
 C        -1.413435         3.128657         1.610085
 C        -0.599928         3.849065         2.711297
 C         0.849498         3.272631         2.600356
 O         1.061187         2.845299         1.227933
 C        -0.229742         2.773606         0.526155
 H         1.191318         0.854019         0.763824
 H        -2.442429         1.583302        -0.394243
 H        -2.248837        -0.187908         0.520169
 H        -1.942507         1.021498         2.558391
 H        -2.296745         3.668214         1.168008
 H        -0.624207         4.901043         2.493755
 H        -0.955526         3.737175         3.675443
 H         1.686032         3.939979         3.041496
 H         0.924103         2.318980         3.162328
 H        -0.220767         3.164539        -0.576337
