19
Iteration:  1549
 O         0.380525         0.251191         0.595417
 C        -0.537813         1.345202         0.627219
 C        -1.978802         1.009648         0.383687
 C        -1.595884         1.634708         1.763271
 C        -1.365022         3.139522         1.563157
 C        -0.631856         3.829409         2.731696
 C         0.700007         3.121945         2.558623
 O         1.048238         3.080439         1.165715
 C        -0.195418         2.802405         0.486669
 H         0.973962         0.297656         1.294716
 H        -2.722215         1.621918        -0.239134
 H        -1.947863        -0.061356         0.310721
 H        -1.786038         1.137668         2.677427
 H        -2.202135         3.674512         1.163536
 H        -0.664603         4.896768         2.623100
 H        -1.004357         3.551804         3.666361
 H         1.529163         3.641988         3.076300
 H         0.481049         2.154502         3.044201
 H        -0.106404         3.291437        -0.541785
