19
Iteration:  3880
 O         0.203166         0.200473         0.463542
 C        -0.613101         1.267320         0.611337
 C        -2.000418         1.067692         0.225170
 C        -1.577238         1.579983         1.668691
 C        -1.285366         3.091277         1.625886
 C        -0.668732         3.528670         2.824295
 C         0.814753         3.809189         2.418268
 O         1.041971         2.871416         1.437805
 C        -0.117644         2.757439         0.592021
 H         0.964518         0.120011         1.068745
 H        -2.538263         1.728048        -0.410220
 H        -2.201855         0.037648         0.185864
 H        -1.822048         1.128376         2.689448
 H        -2.056049         3.896669         1.331254
 H        -1.084090         4.486878         3.096486
 H        -0.501799         2.774422         3.677322
 H         1.161436         4.819851         2.097481
 H         1.577027         3.410484         3.186876
 H         0.095116         3.321052        -0.302102
