19
Iteration:  3344charge 0 multiplicity 1
 O         0.285174         0.172440         0.457276
 C        -0.563711         1.191967         0.683611
 C        -1.928192         1.096820         0.247709
 C        -1.865080         1.719119         1.599867
 C        -1.317015         3.081562         1.643489
 C        -0.573704         3.527377         2.930524
 C         0.807087         3.785437         2.373917
 O         1.106820         2.894375         1.334434
 C        -0.116142         2.684579         0.662652
 H         1.095198         0.101699         0.941266
 H        -2.077851         1.778710        -0.611466
 H        -2.593259         0.158410         0.155499
 H        -2.141759         1.326530         2.588427
 H        -2.104425         3.728380         1.305404
 H        -1.043101         4.364938         3.360169
 H        -0.617206         2.788287         3.726057
 H         0.588282         4.759259         1.884471
 H         1.556752         3.755455         3.281216
 H        -0.100770         3.217558        -0.368014
