19
Iteration:  2148charge 0 multiplicity 1
 O         0.320106         0.270974         0.530694
 C        -0.548730         1.312930         0.656787
 C        -2.080245         1.003368         0.410913
 C        -1.668544         1.597445         1.664737
 C        -1.330536         3.082968         1.456382
 C        -0.646239         3.695459         2.790582
 C         0.808062         3.280737         2.623175
 O         1.080801         3.171120         1.194858
 C        -0.109289         2.772365         0.556470
 H         1.144173         0.438818         1.030097
 H        -2.775907         1.512407        -0.292408
 H        -2.265177        -0.200636         0.530134
 H        -2.025883         1.286969         2.674262
 H        -2.092489         3.651233         0.926985
 H        -0.837116         4.735938         2.888568
 H        -1.012785         3.229907         3.718178
 H         1.576295         3.985320         3.039570
 H         1.013291         2.303164         3.135540
 H        -0.080422         3.149598        -0.543644
