19
Iteration:  2982charge 0 multiplicity 1
 O         0.291803         0.219349         0.466619
 C        -0.556115         1.209352         0.690466
 C        -2.055072         1.181111         0.228117
 C        -1.743556         1.580675         1.599670
 C        -1.281237         2.990620         1.618175
 C        -0.635099         3.649258         2.892658
 C         0.838963         3.807066         2.438966
 O         1.118255         2.821689         1.371809
 C        -0.162758         2.645358         0.637008
 H         1.152362         0.511211         0.909197
 H        -2.426961         1.984164        -0.357012
 H        -2.529825         0.201475         0.087149
 H        -2.158050         0.980249         2.477775
 H        -2.055157         3.724311         1.287235
 H        -1.056863         4.664704         3.028631
 H        -0.679593         2.948881         3.768590
 H         1.003827         4.788027         1.994583
 H         1.680167         3.788254         3.153322
 H        -0.200574         3.076226        -0.390592
