19
Iteration:  4538
 O         0.282349         0.124957         0.650512
 C        -0.608096         1.254969         0.486178
 C        -2.033529         1.196485         0.055765
 C        -1.741826         1.543403         1.641680
 C        -1.273022         2.958628         1.676660
 C        -0.552418         3.463508         2.987128
 C         0.804611         3.964708         2.413213
 O         1.112431         2.949152         1.408813
 C        -0.139170         2.746368         0.610672
 H         0.728417        -0.176374        -0.166415
 H        -2.532231         1.814572        -0.576552
 H        -2.613732         0.265330         0.188302
 H        -2.210626         0.833977         2.439677
 H        -2.182753         3.544096         1.357634
 H        -1.096838         4.274393         3.551249
 H        -0.292921         2.749131         3.724990
 H         0.956060         4.959383         2.010660
 H         1.726500         3.810285         3.109384
 H        -0.122791         3.297655        -0.400869
