19
Iteration:   781charge 0 multiplicity 1
 O         0.161108         0.084365         0.502147
 C        -0.507118         1.318582         0.675372
 C        -1.941535         1.080451         0.242128
 C        -1.570324         1.538833         1.721420
 C        -1.343463         3.109889         1.683855
 C        -0.655606         3.878222         2.729159
 C         0.811302         3.377686         2.617536
 O         1.069735         3.100072         1.234482
 C        -0.158302         2.724337         0.520223
 H         0.981675        -0.032654         1.119964
 H        -2.346379         1.749741        -0.358731
 H        -2.204601         0.086017         0.097551
 H        -2.082385         0.949222         2.428264
 H        -2.231506         3.514218         1.175105
 H        -0.664733         4.881511         2.513542
 H        -0.926645         3.812765         3.796734
 H         1.600499         4.097290         2.958270
 H         0.870383         2.506162         3.310619
 H        -0.160885         3.249313        -0.475043
