19
Iteration:    39charge 0 multiplicity 1
 O         0.472585         0.479455         0.731335
 C        -0.654590         1.303908         0.554000
 C        -2.075653         0.954748         0.358334
 C        -1.814635         1.757754         1.577751
 C        -1.264756         3.119426         1.558295
 C        -0.530126         3.669611         2.770026
 C         0.875604         3.185721         2.558753
 O         0.982377         2.856671         1.171819
 C        -0.236611         2.784493         0.560324
 H         1.081726         1.160942         1.016119
 H        -2.678513         1.303281        -0.561140
 H        -2.235358        -0.073410         0.656100
 H        -2.262595         1.263856         2.494931
 H        -2.010437         3.953204         1.231912
 H        -0.594822         4.767177         2.655551
 H        -0.929918         3.289982         3.729985
 H         1.772985         3.864562         2.754843
 H         1.321541         2.409774         3.268479
 H        -0.186228         3.473303        -0.318457
