19
Iteration:  1026charge 0 multiplicity 1
 O         0.349395         0.233470         0.571289
 C        -0.631184         1.186016         0.660309
 C        -2.021532         1.067328         0.292517
 C        -1.830002         1.581630         1.647047
 C        -1.311848         3.064654         1.603066
 C        -0.603682         3.757256         2.750531
 C         0.881438         3.364227         2.665171
 O         1.084576         3.171149         1.203667
 C        -0.159713         2.685708         0.555820
 H         1.167111         0.540220         1.040244
 H        -2.409614         1.739897        -0.439172
 H        -2.329519         0.096584         0.132364
 H        -2.151189         1.074812         2.517807
 H        -2.126144         3.737297         1.199274
 H        -0.553323         4.864047         2.509981
 H        -0.989041         3.605274         3.716076
 H         1.685405         4.065598         2.847616
 H         1.132339         2.392389         3.199288
 H        -0.103330         3.029666        -0.584059
