19
Iteration:  1087charge 0 multiplicity 1
 O         0.359011         0.227167         0.494271
 C        -0.588487         1.282618         0.669384
 C        -2.074278         0.945319         0.441121
 C        -1.654643         1.648225         1.691943
 C        -1.292579         3.154249         1.452193
 C        -0.598882         3.866904         2.655674
 C         0.716403         3.130358         2.697760
 O         1.119296         3.160445         1.248541
 C        -0.193330         2.804157         0.544191
 H         1.141247         0.624084         0.816666
 H        -2.671440         1.354967        -0.421305
 H        -2.067597        -0.208370         0.514215
 H        -1.971860         1.156534         2.662445
 H        -2.112125         3.784350         1.236466
 H        -0.568318         4.933460         2.578553
 H        -1.083638         3.596193         3.683211
 H         1.520670         3.556301         3.337789
 H         0.621988         2.050599         2.933204
 H        -0.079515         3.077966        -0.427097
