19
Iteration:  1179charge 0 multiplicity 1
 O         0.262560         0.190319         0.558145
 C        -0.552856         1.251591         0.736228
 C        -2.002864         1.046144         0.348457
 C        -1.713785         1.574987         1.721103
 C        -1.381337         3.108511         1.493306
 C        -0.626409         3.699369         2.725640
 C         0.837423         3.309105         2.607047
 O         1.095012         3.174479         1.199288
 C        -0.127849         2.775334         0.573207
 H         1.149407         0.548333         0.695072
 H        -2.271000         1.669132        -0.432164
 H        -2.275097        -0.018143         0.196361
 H        -1.986427         1.327283         2.789576
 H        -2.270886         3.635333         0.992932
 H        -0.671413         4.839649         2.616590
 H        -1.163842         3.410892         3.622497
 H         1.553064         4.106924         2.927709
 H         1.062761         2.407195         3.143541
 H         0.111804         3.157526        -0.498315
