19
Iteration:   358
 O         0.252194         0.179292         0.552305
 C        -0.648416         1.215948         0.654176
 C        -1.988640         1.055765         0.201516
 C        -1.780641         1.637963         1.617135
 C        -1.262012         3.106955         1.581141
 C        -0.513654         3.579306         2.887219
 C         0.929929         3.818000         2.422769
 O         1.078699         2.848953         1.344095
 C        -0.233194         2.725191         0.643834
 H         1.007948         0.308507         1.075950
 H        -2.293048         1.713264        -0.721632
 H        -2.354706         0.036526         0.203517
 H        -2.373562         1.227710         2.440107
 H        -2.085843         3.921878         1.370604
 H        -1.125417         4.392882         3.364416
 H        -0.612208         2.652159         3.541749
 H         1.021856         4.830508         2.090010
 H         1.760393         3.519450         3.141033
 H        -0.130153         3.365758        -0.307988
