19
Iteration:  3271
 O         0.338334         0.228308         0.473405
 C        -0.619946         1.225969         0.681105
 C        -1.932610         1.129251         0.216403
 C        -1.737905         1.637514         1.671681
 C        -1.323565         3.086483         1.563811
 C        -0.610371         3.557682         2.852871
 C         0.840412         3.726627         2.419755
 O         1.049318         2.840082         1.376605
 C        -0.192030         2.721909         0.630828
 H         1.010753         0.273499         1.151858
 H        -2.313701         1.827429        -0.512694
 H        -2.426364         0.186953         0.332918
 H        -1.982030         1.093572         2.613627
 H        -2.099524         3.781236         1.107045
 H        -0.929827         4.587390         3.214672
 H        -0.708658         2.882934         3.784392
 H         0.984906         4.761034         2.060305
 H         1.519629         3.378225         3.164439
 H        -0.194923         3.198974        -0.324027
