19
Iteration:  2671charge 0 multiplicity 1
 O         0.313825         0.220491         0.456870
 C        -0.638501         1.247324         0.647160
 C        -2.001064         1.105571         0.180636
 C        -1.747830         1.553690         1.648022
 C        -1.293821         3.070652         1.620941
 C        -0.490229         3.661871         2.892694
 C         0.853922         3.863425         2.356668
 O         0.969096         2.758249         1.469445
 C        -0.131150         2.720883         0.668157
 H         1.095542         0.453330         0.917546
 H        -2.553830         1.617044        -0.687067
 H        -2.498391         0.056104         0.085242
 H        -1.997576         0.820271         2.536346
 H        -2.076175         3.766575         1.301116
 H        -1.147884         4.412112         3.380287
 H        -0.413739         2.795430         3.631950
 H         0.889826         4.745323         1.725251
 H         1.663827         3.775189         3.072560
 H         0.043675         3.308718        -0.317655
