19
Iteration:  3283charge 0 multiplicity 1
 O         0.303601         0.179448         0.530280
 C        -0.507939         1.279194         0.632819
 C        -2.066257         1.142281         0.249065
 C        -1.644329         1.603383         1.611620
 C        -1.364485         3.092459         1.665606
 C        -0.690574         3.623251         2.919525
 C         0.830127         3.703978         2.447573
 O         1.082721         2.830289         1.264604
 C        -0.099026         2.693242         0.597461
 H         0.986595         0.328684         1.218555
 H        -2.449791         1.907746        -0.455499
 H        -2.272173         0.191501        -0.067864
 H        -2.096496         1.098364         2.498642
 H        -2.243926         3.759292         1.405910
 H        -1.173966         4.640021         3.218669
 H        -0.900326         2.800268         3.713142
 H         0.980249         4.760997         2.104227
 H         1.624202         3.622070         3.133342
 H         0.027424         3.169482        -0.340808
