19
Iteration:  4482
 O         0.334898         0.120596         0.487559
 C        -0.554418         1.212568         0.606705
 C        -2.084083         1.205902         0.180087
 C        -1.697125         1.548659         1.600827
 C        -1.278410         3.020144         1.612844
 C        -0.602901         3.514039         2.942449
 C         0.781712         3.968469         2.434615
 O         1.073668         2.918871         1.439579
 C        -0.083189         2.686889         0.711451
 H        -0.076361        -0.397698        -0.263637
 H        -2.434135         1.959582        -0.537051
 H        -2.567197         0.261358         0.036309
 H        -1.901081         0.977757         2.534777
 H        -2.071694         3.671863         1.158208
 H        -1.111633         4.341429         3.355814
 H        -0.442798         2.730361         3.666574
 H         0.781110         4.927244         1.922602
 H         1.618944         3.845395         3.162067
 H         0.046775         3.264197        -0.293257
