19
Iteration:  2558charge 0 multiplicity 1
 O         0.350866         0.205628         0.612696
 C        -0.580191         1.289365         0.703126
 C        -2.046949         1.141045         0.369725
 C        -1.647084         1.523081         1.708297
 C        -1.357963         3.036271         1.538509
 C        -0.682764         3.736101         2.727324
 C         0.819980         3.177231         2.539031
 O         1.146151         3.243346         1.182661
 C        -0.234398         2.776760         0.544980
 H         1.223830         0.455313         1.075600
 H        -2.544503         1.912634        -0.309775
 H        -2.220587         0.023132         0.178258
 H        -1.886450         0.990322         2.590779
 H        -2.188864         3.658318         1.230555
 H        -0.707827         4.762765         2.442332
 H        -1.048952         3.609839         3.707572
 H         1.474371         3.892349         2.981959
 H         1.023259         2.132318         2.903453
 H        -0.172618         3.326037        -0.467186
