19
Iteration:  2796charge 0 multiplicity 1
 O         0.397584         0.232460         0.617616
 C        -0.641895         1.255677         0.693641
 C        -1.997929         1.180012         0.186023
 C        -1.816665         1.664388         1.637136
 C        -1.343007         3.071576         1.574758
 C        -0.589250         3.436039         2.870725
 C         0.893241         3.765601         2.408179
 O         1.031097         2.793024         1.300387
 C        -0.179340         2.761420         0.628604
 H         1.156008         0.691792         0.934083
 H        -2.344725         1.906447        -0.477160
 H        -2.152811         0.155009         0.085423
 H        -2.213208         1.172700         2.449314
 H        -2.202839         3.739585         1.369919
 H        -1.030985         4.256879         3.544102
 H        -0.481654         2.410859         3.471630
 H         0.978097         4.770917         1.958558
 H         1.808726         3.761337         3.036090
 H        -0.129953         3.199601        -0.413164
