19
Iteration:   110
 O         0.259413         0.002964         0.567966
 C        -0.586044         1.131614         0.741024
 C        -2.080557         1.005564         0.225161
 C        -1.616858         1.591659         1.649981
 C        -1.306818         3.136080         1.631276
 C        -0.550990         3.836671         2.758678
 C         0.857193         3.226417         2.573731
 O         1.009267         3.396661         1.165918
 C        -0.117895         2.875252         0.608284
 H         0.880229        -0.108080         1.287076
 H        -2.467654         1.648327        -0.575085
 H        -2.529168        -0.059460         0.203156
 H        -1.961289         1.256043         2.583035
 H        -2.108674         3.673618         1.289396
 H        -0.518081         4.923958         2.481634
 H        -1.000517         3.625104         3.736469
 H         1.647988         3.681002         3.100041
 H         0.932873         2.200999         2.940270
 H        -0.200904         3.234376        -0.417575
