19
Iteration:   227charge 0 multiplicity 1
 O         0.316401         0.177804         0.550271
 C        -0.526474         1.283252         0.654676
 C        -2.031987         1.171572         0.320167
 C        -1.617834         1.633918         1.649058
 C        -1.310425         3.119138         1.597033
 C        -0.617156         3.661412         2.831366
 C         0.834021         3.573054         2.407831
 O         0.964457         2.737917         1.338108
 C        -0.205479         2.801721         0.551089
 H         1.089553         0.363254         1.238495
 H        -2.558292         1.841194        -0.432581
 H        -2.260926         0.042046         0.238311
 H        -1.726818         1.188421         2.583740
 H        -2.013042         3.939045         1.134377
 H        -0.883123         4.728753         2.902422
 H        -0.856563         3.025156         3.713870
 H         1.001633         4.694477         2.048349
 H         1.577051         3.331392         3.274560
 H        -0.013747         3.350621        -0.417330
