19
Iteration:  2830charge 0 multiplicity 1
 O         0.343657         0.298596         0.678989
 C        -0.670091         1.246922         0.598773
 C        -2.096328         1.046398         0.129821
 C        -1.753980         1.618339         1.548242
 C        -1.296645         3.103107         1.639938
 C        -0.540289         3.490528         2.885721
 C         0.919223         3.753012         2.493173
 O         1.064498         2.839381         1.283261
 C        -0.179923         2.777595         0.594602
 H         0.883858         0.766905         1.383987
 H        -2.614029         1.507612        -0.668279
 H        -2.362801        -0.042658         0.126942
 H        -1.855104         1.032414         2.520431
 H        -2.066910         3.825749         1.297217
 H        -1.052117         4.297966         3.497059
 H        -0.628493         2.519059         3.579913
 H         1.047412         4.789274         2.076742
 H         1.762640         3.397029         3.108535
 H        -0.078961         3.363576        -0.369671
