19
Iteration:   290charge 0 multiplicity 1
 O         0.134954         0.007657         0.385017
 C        -0.567251         1.180478         0.712269
 C        -1.960594         1.218986         0.196841
 C        -1.771418         1.599783         1.623467
 C        -1.299186         3.045511         1.709711
 C        -0.589873         3.636364         2.938449
 C         0.833879         4.017859         2.306548
 O         1.153315         2.913622         1.416055
 C        -0.091119         2.597919         0.682589
 H         0.852791        -0.166037         1.141325
 H        -2.263935         1.887514        -0.619414
 H        -2.264568         0.135280         0.022563
 H        -2.407250         1.105098         2.324472
 H        -2.182372         3.706243         1.380918
 H        -1.044801         4.440653         3.571969
 H        -0.256858         2.754159         3.555982
 H         0.879685         4.888445         1.693635
 H         1.604671         4.082475         3.108320
 H        -0.034068         2.952749        -0.400259
