19
Iteration:  2232
 O         0.359187         0.207432         0.538851
 C        -0.565927         1.272877         0.662084
 C        -1.990175         1.044807         0.268820
 C        -1.716225         1.543083         1.753804
 C        -1.287191         3.130177         1.596773
 C        -0.612960         3.769061         2.740278
 C         0.816389         3.296282         2.576685
 O         1.001305         3.127368         1.219938
 C        -0.220269         2.778983         0.567245
 H         1.177259         0.479150         1.081122
 H        -2.408021         1.706145        -0.458585
 H        -2.188745        -0.022912         0.124236
 H        -1.988292         0.951304         2.638054
 H        -2.078676         3.784104         1.148578
 H        -0.580639         4.893596         2.618615
 H        -0.990486         3.439851         3.760620
 H         1.515934         4.018339         2.935202
 H         0.945555         2.307612         3.082606
 H        -0.108411         3.166221        -0.429872
