19
Iteration:  2497
 O         0.461938         0.495604         0.597651
 C        -0.586448         1.321899         0.694888
 C        -2.078495         0.991295         0.431930
 C        -1.786408         1.679022         1.717197
 C        -1.318561         3.110508         1.518278
 C        -0.626341         3.668076         2.687829
 C         0.774446         3.128199         2.595679
 O         1.129590         2.997081         1.172901
 C        -0.218934         2.740284         0.468584
 H         1.173784         1.170410         0.808330
 H        -2.562751         1.378864        -0.464768
 H        -2.341291         0.053236         0.603079
 H        -1.969691         1.259483         2.675202
 H        -2.166202         3.734422         1.154057
 H        -0.664313         4.775171         2.805170
 H        -1.053055         3.207874         3.658531
 H         1.619387         3.688132         3.012370
 H         0.833351         2.166596         3.157859
 H        -0.090655         3.118456        -0.484653
