19
Iteration:  3701charge 0 multiplicity 1
 O         0.302918         0.228791         0.656812
 C        -0.588609         1.287063         0.586039
 C        -2.044134         1.113447         0.120633
 C        -1.768841         1.624047         1.649872
 C        -1.334190         3.024659         1.617531
 C        -0.584341         3.518128         2.915738
 C         0.848150         3.718563         2.414550
 O         1.092834         2.920255         1.274859
 C        -0.129544         2.698791         0.677585
 H         1.144256         0.610408         0.993101
 H        -2.537811         1.703808        -0.811111
 H        -2.266211         0.032619        -0.054454
 H        -2.305282         1.020983         2.424529
 H        -2.055366         3.790588         1.155581
 H        -0.943250         4.363948         3.576735
 H        -0.653249         2.771905         3.763835
 H         1.012797         4.790425         2.146054
 H         1.652047         3.581208         3.051601
 H        -0.012470         3.225463        -0.300066
