19
Iteration:    85charge 0 multiplicity 1
 O         0.234173         0.141658         0.668212
 C        -0.496336         1.308696         0.695104
 C        -1.857084         1.174203         0.312415
 C        -1.717931         1.646981         1.733876
 C        -1.353504         3.090371         1.586711
 C        -0.582635         3.694753         2.759786
 C         0.824965         3.190351         2.510372
 O         1.011945         3.218598         1.099161
 C        -0.213192         2.748464         0.570140
 H         1.107053         0.285643         0.828802
 H        -2.485337         1.710897        -0.545684
 H        -1.980302         0.075442         0.287476
 H        -2.132935         1.211646         2.659397
 H        -2.148670         3.761420         1.185456
 H        -0.619855         4.819651         2.540040
 H        -1.051884         3.400135         3.756502
 H         1.598728         3.632450         3.126912
 H         0.958532         2.154688         3.002379
 H        -0.286902         3.046333        -0.509339
