19
Iteration:   831charge 0 multiplicity 1
 O         0.394314         0.306634         0.521833
 C        -0.620526         1.284255         0.578581
 C        -2.039307         0.974206         0.345757
 C        -1.792691         1.661497         1.683109
 C        -1.288179         3.179504         1.544455
 C        -0.607562         3.796845         2.774994
 C         0.853663         3.413992         2.637575
 O         1.045957         2.824145         1.262123
 C        -0.185453         2.723987         0.543704
 H         1.170429         0.830131         0.818336
 H        -2.642059         1.509838        -0.559735
 H        -2.257815        -0.147454         0.598561
 H        -2.006756         1.363884         2.743901
 H        -2.008670         3.847120         1.048614
 H        -0.767648         4.976068         2.781765
 H        -1.093898         3.349180         3.646931
 H         1.604766         4.205451         2.749548
 H         1.087527         2.667905         3.403297
 H         0.178882         2.988305        -0.444801
