19
Iteration:  2463charge 0 multiplicity 1
 O         0.402435         0.334901         0.631285
 C        -0.585328         1.294994         0.603241
 C        -2.003024         1.023600         0.339692
 C        -1.671169         1.650685         1.668094
 C        -1.345275         3.098506         1.632407
 C        -0.583540         3.757048         2.748447
 C         0.816079         3.224829         2.603389
 O         1.020610         2.972534         1.167604
 C        -0.260873         2.820205         0.489865
 H         1.241129         0.653958         0.921087
 H        -2.391060         1.482854        -0.561453
 H        -2.342929         0.104104         0.597740
 H        -1.704380         1.059101         2.546345
 H        -2.214783         3.690098         1.296597
 H        -0.643562         4.867803         2.697286
 H        -1.108094         3.375387         3.707162
 H         1.551061         3.964509         2.878205
 H         0.873703         2.272600         3.177381
 H        -0.282031         3.275115        -0.436417
