19
Iteration:  1703charge 0 multiplicity 1
 O         0.318677         0.230168         0.647703
 C        -0.557010         1.239688         0.709165
 C        -1.979521         1.115115         0.280400
 C        -1.674549         1.551055         1.709187
 C        -1.381431         3.084634         1.564197
 C        -0.637276         3.742057         2.783559
 C         0.816715         3.340854         2.566433
 O         1.115044         3.069726         1.117296
 C        -0.181577         2.775478         0.491841
 H         1.120010         0.488422         1.034560
 H        -2.535828         1.769231        -0.365015
 H        -2.495188         0.042925         0.344741
 H        -1.833891         1.093812         2.760930
 H        -2.277718         3.708014         1.330744
 H        -0.979026         4.745638         2.706845
 H        -0.969458         3.395440         3.697848
 H         1.579736         4.129321         2.898326
 H         0.924675         2.492371         3.295455
 H        -0.182273         3.250134        -0.576681
