19
Iteration:  3622
 O         0.279418         0.123267         0.501838
 C        -0.539374         1.239297         0.712746
 C        -1.957889         1.200496         0.150727
 C        -1.757012         1.585050         1.616592
 C        -1.325717         3.016586         1.671160
 C        -0.640752         3.602284         2.891061
 C         0.843502         3.799256         2.391345
 O         1.077135         2.925456         1.350602
 C        -0.138689         2.655307         0.684043
 H         1.174740         0.326610         0.787412
 H        -2.497001         1.898682        -0.579355
 H        -2.402037         0.216955        -0.041021
 H        -2.281829         0.914531         2.301377
 H        -2.055301         3.748663         1.271138
 H        -0.972803         4.592416         3.219565
 H        -0.697040         2.831788         3.654610
 H         0.994780         4.816658         2.038430
 H         1.532865         3.539931         3.163522
 H        -0.158442         3.244173        -0.229529
