19
Iteration:  4320
 O         0.175509         0.130155         0.534409
 C        -0.643832         1.271676         0.712217
 C        -1.968476         1.146613         0.126626
 C        -1.798561         1.518081         1.632797
 C        -1.283783         2.986233         1.618905
 C        -0.498468         3.434515         2.905234
 C         0.823692         3.931119         2.446079
 O         1.129857         2.993424         1.296045
 C        -0.127957         2.704830         0.651795
 H         1.059595         0.462453         0.814351
 H        -2.174178         2.022406        -0.403088
 H        -2.278957         0.167572        -0.175151
 H        -2.045210         1.065427         2.613597
 H        -1.922050         3.726505         1.164836
 H        -1.077925         4.279674         3.474810
 H        -0.376957         2.560938         3.632013
 H         0.670617         4.992474         2.096314
 H         1.508448         3.729345         3.319169
 H        -0.133941         3.189089        -0.315481
