19
Iteration:  1825
 O         0.262406         0.201177         0.547752
 C        -0.542888         1.348226         0.666411
 C        -1.933306         1.015515         0.331922
 C        -1.592407         1.615241         1.766687
 C        -1.435184         3.118629         1.544366
 C        -0.650712         3.757109         2.734278
 C         0.812256         3.278191         2.590758
 O         1.047263         3.065474         1.208998
 C        -0.166931         2.798474         0.532222
 H         1.192975         0.276042         0.987804
 H        -2.354756         1.525339        -0.586535
 H        -2.085094         0.019395         0.476346
 H        -1.767731         1.187334         2.682925
 H        -2.322414         3.689724         1.234410
 H        -0.616091         4.797799         2.608907
 H        -1.157490         3.591939         3.618005
 H         1.628535         3.979633         2.931196
 H         0.946162         2.308828         3.076072
 H        -0.162473         3.283818        -0.507588
