19
Iteration:  1859charge 0 multiplicity 1
 O         0.456741         0.244269         0.613428
 C        -0.611523         1.169439         0.655612
 C        -2.076817         1.136248         0.235154
 C        -1.825335         1.609275         1.736638
 C        -1.330789         3.004351         1.574800
 C        -0.634421         3.709816         2.804966
 C         0.939196         3.476654         2.539283
 O         1.080728         3.036922         1.170527
 C        -0.188872         2.739461         0.633268
 H         1.136053         0.942861         0.889428
 H        -2.390619         1.696833        -0.717104
 H        -2.681753         0.193557         0.088215
 H        -2.290572         1.073311         2.606794
 H        -2.133792         3.485953         1.028546
 H        -0.829065         4.688067         2.685439
 H        -0.988652         3.331960         3.713257
 H         1.608070         4.268531         2.936202
 H         1.209167         2.570185         3.123695
 H        -0.338928         3.204265        -0.420595
