19
Iteration:   466
 O         0.382775         0.283077         0.571082
 C        -0.521260         1.323246         0.779722
 C        -2.025387         1.057826         0.455236
 C        -1.726838         1.587311         1.798686
 C        -1.390498         3.148858         1.496438
 C        -0.619895         3.780732         2.715124
 C         0.651109         3.052314         2.580896
 O         1.122018         3.149088         1.098501
 C        -0.090104         2.764993         0.470451
 H         1.129442         0.722673         0.864404
 H        -2.630582         1.843080        -0.188157
 H        -2.267042         0.033650         0.111528
 H        -1.854037         1.088531         2.799697
 H        -2.245178         3.720186         1.153636
 H        -0.240155         4.864401         2.511207
 H        -1.187526         3.852122         3.727790
 H         1.430172         3.390098         3.206624
 H         0.652960         1.920436         2.698820
 H        -0.037256         3.172554        -0.528373
