19
Iteration:  3661charge 0 multiplicity 1
 O         0.353806         0.240682         0.613808
 C        -0.626439         1.261181         0.585339
 C        -2.039677         1.122485         0.160545
 C        -1.760540         1.600863         1.554306
 C        -1.345758         3.104228         1.565751
 C        -0.543820         3.474159         2.904929
 C         0.831029         3.769107         2.343585
 O         1.022743         2.846888         1.411477
 C        -0.121666         2.757800         0.652524
 H         0.923178         0.605417         1.328530
 H        -2.605592         1.701253        -0.450079
 H        -2.157077         0.072346         0.481530
 H        -1.950734         1.242496         2.518611
 H        -2.107777         3.737480         1.127694
 H        -1.006199         4.123655         3.648244
 H        -0.394950         2.514984         3.496827
 H         1.137656         4.822790         2.027203
 H         1.588682         3.497051         3.178224
 H        -0.023008         3.297040        -0.335353
