19
Iteration:   455charge 0 multiplicity 1
 O         0.380846         0.279957         0.594168
 C        -0.559202         1.291062         0.744419
 C        -1.968134         1.089971         0.375556
 C        -1.700777         1.606708         1.752786
 C        -1.427189         3.174770         1.618095
 C        -0.582146         3.839895         2.676969
 C         0.756062         3.026811         2.503909
 O         1.051761         3.166170         1.177561
 C        -0.193187         2.709682         0.519748
 H         1.306944         0.563354         0.855207
 H        -2.354530         1.717824        -0.517984
 H        -2.129824         0.005848         0.340197
 H        -2.006544         1.015049         2.644115
 H        -2.176033         3.710433         1.059544
 H        -0.381509         4.936662         2.385676
 H        -0.897522         3.706126         3.771183
 H         1.550633         3.473481         3.055175
 H         0.512661         1.995870         2.921521
 H        -0.103166         2.979991        -0.526830
