19
Iteration:  4977
 O         0.378899         0.163370         0.337757
 C        -0.548420         1.179183         0.648534
 C        -1.992315         1.216385         0.193430
 C        -1.791465         1.561813         1.628559
 C        -1.395234         3.073281         1.729833
 C        -0.550423         3.529265         3.020580
 C         0.862528         3.939820         2.336752
 O         1.013718         2.833882         1.439426
 C        -0.169020         2.622849         0.675942
 H         1.199185         0.471132         0.748766
 H        -2.277518         1.802374        -0.680199
 H        -2.563352         0.336147         0.121902
 H        -2.232888         0.993997         2.378665
 H        -2.050343         3.745073         1.247547
 H        -1.050953         4.478040         3.349930
 H        -0.407245         2.801262         3.776481
 H         0.724510         4.971421         1.744166
 H         1.601246         4.006941         3.104798
 H        -0.061887         3.051251        -0.393050
