19
Iteration:  1521
 O         0.380888         0.160977         0.606508
 C        -0.544228         1.246077         0.548689
 C        -2.026969         1.178862         0.428759
 C        -1.535962         1.647313         1.771936
 C        -1.353916         3.090428         1.522303
 C        -0.636300         3.732320         2.648065
 C         0.770730         3.170685         2.647255
 O         1.033733         3.218951         1.208656
 C        -0.232728         2.746792         0.485024
 H         1.094576         0.409107         1.168790
 H        -2.604191         1.779963        -0.213888
 H        -2.394034         0.056175         0.371433
 H        -1.645020         0.908997         2.654976
 H        -2.261817         3.587567         0.989513
 H        -0.841049         4.850952         2.451924
 H        -1.241808         3.503185         3.640198
 H         1.524452         3.832714         3.094720
 H         0.697666         2.127212         3.242130
 H        -0.094916         3.222826        -0.439742
