19
Iteration:  3507charge 0 multiplicity 1
 O         0.321893         0.294161         0.543921
 C        -0.646699         1.265730         0.639756
 C        -2.047709         1.128600         0.152280
 C        -1.686893         1.538031         1.570532
 C        -1.313539         3.061435         1.631525
 C        -0.543111         3.597237         2.912281
 C         0.846718         3.846822         2.417430
 O         1.038435         2.761820         1.393434
 C        -0.149538         2.679542         0.643179
 H         0.887213         0.236547         1.338196
 H        -2.472730         1.738795        -0.677171
 H        -2.336366         0.137596        -0.010376
 H        -2.046353         0.869785         2.405815
 H        -2.055817         3.632140         1.078534
 H        -0.955770         4.587163         3.214069
 H        -0.624275         2.970059         3.829303
 H         0.923275         4.784682         1.979977
 H         1.667133         3.583195         3.122619
 H        -0.112307         3.247394        -0.247053
