19
Iteration:  2621charge 0 multiplicity 1
 O         0.279615         0.279512         0.531476
 C        -0.595056         1.267733         0.573253
 C        -2.035853         1.048045         0.304182
 C        -1.684951         1.565696         1.652177
 C        -1.346354         3.076024         1.534884
 C        -0.598844         3.630026         2.818646
 C         0.978406         3.642123         2.535495
 O         1.065434         2.906706         1.341690
 C        -0.212454         2.704550         0.598350
 H         1.098381         0.726750         0.959923
 H        -2.652546         1.576236        -0.326362
 H        -2.194621        -0.041426         0.046121
 H        -2.119105         1.094766         2.523562
 H        -2.180623         3.733552         1.133987
 H        -1.014150         4.660859         3.001740
 H        -0.958828         3.133412         3.739127
 H         1.316214         4.711082         2.365135
 H         1.461944         3.119006         3.378725
 H        -0.184263         3.188848        -0.365005
