19
Iteration:   916charge 0 multiplicity 1
 O         0.322555         0.137467         0.601895
 C        -0.470525         1.298448         0.743739
 C        -1.845619         1.118201         0.319460
 C        -1.805424         1.690205         1.743435
 C        -1.428716         3.141758         1.574808
 C        -0.588879         3.761705         2.713176
 C         0.778253         3.098273         2.551823
 O         1.021762         3.183481         1.153073
 C        -0.209518         2.801553         0.571787
 H         1.226633         0.374090         0.660987
 H        -2.191835         1.496862        -0.638789
 H        -2.042756        -0.011603         0.297279
 H        -2.028709         1.194844         2.752014
 H        -2.299415         3.668590         1.097214
 H        -0.307850         4.816036         2.558669
 H        -0.954526         3.805542         3.709908
 H         1.515940         3.688599         3.048005
 H         0.728482         2.072179         3.004706
 H        -0.164392         2.945954        -0.554853
