19
Iteration:  3061charge 0 multiplicity 1
 O         0.348008         0.215015         0.577510
 C        -0.617913         1.182540         0.695535
 C        -2.004123         1.140637         0.195031
 C        -1.765633         1.621786         1.645471
 C        -1.365146         3.086005         1.569869
 C        -0.602927         3.541104         2.934278
 C         0.886722         3.759432         2.454442
 O         1.056893         2.850696         1.277559
 C        -0.116959         2.746505         0.607087
 H         1.169937         0.799997         0.602590
 H        -2.338082         1.805620        -0.575106
 H        -2.490948         0.251294         0.142781
 H        -2.256198         1.053046         2.410105
 H        -2.126086         3.796695         1.174252
 H        -0.997449         4.402715         3.461000
 H        -0.649823         2.705099         3.770566
 H         0.891965         4.777268         2.123159
 H         1.685567         3.373494         3.069322
 H        -0.183686         3.137043        -0.444039
