19
Iteration:  2171
 O         0.454457         0.303605         0.632718
 C        -0.593515         1.293491         0.589156
 C        -1.997784         1.077107         0.318362
 C        -1.617396         1.677112         1.708563
 C        -1.433774         3.167604         1.576950
 C        -0.618824         3.678263         2.796096
 C         0.841988         3.313353         2.592742
 O         0.987127         2.888769         1.167244
 C        -0.240378         2.799070         0.514835
 H         1.227672         0.776352         0.994080
 H        -2.348413         1.651410        -0.549915
 H        -2.340842        -0.128604         0.318776
 H        -1.816284         0.999844         2.631140
 H        -2.280565         3.750690         1.228767
 H        -0.854892         4.747410         2.864227
 H        -1.106114         3.295618         3.686969
 H         1.597205         4.132450         2.876115
 H         1.200705         2.431135         3.161219
 H        -0.277308         3.293449        -0.542333
