19
Iteration:   399
 O         0.277491         0.338867         0.673004
 C        -0.646415         1.302190         0.670930
 C        -2.062091         1.080915         0.310008
 C        -1.716749         1.594049         1.698007
 C        -1.287267         3.063289         1.508681
 C        -0.611386         3.543874         2.728794
 C         0.914878         3.485685         2.581711
 O         1.131737         2.935147         1.178744
 C        -0.183914         2.774763         0.532897
 H         1.168498         0.812330         1.015925
 H        -2.585683         1.723148        -0.464050
 H        -2.367059         0.049483         0.253286
 H        -2.161103         1.161834         2.552399
 H        -1.981293         3.729394         1.031950
 H        -0.943105         4.586474         3.029596
 H        -0.946734         2.991244         3.654770
 H         1.402079         4.493932         2.600484
 H         1.395730         2.771158         3.367779
 H        -0.261809         3.256140        -0.412514
