19
Iteration:  2474
 O         0.479016         0.374832         0.642710
 C        -0.594100         1.291203         0.607654
 C        -2.106068         0.991787         0.367014
 C        -1.661153         1.634139         1.681051
 C        -1.373066         3.182419         1.486083
 C        -0.611842         3.695505         2.735325
 C         0.855279         3.176770         2.658874
 O         1.002986         2.977822         1.159464
 C        -0.226514         2.773742         0.539196
 H         1.133781         1.120846         0.760294
 H        -2.793422         1.592031        -0.256600
 H        -2.360669         0.008763         0.334172
 H        -1.863551         1.205144         2.625484
 H        -2.209358         3.823857         1.153359
 H        -0.508057         4.803862         2.754198
 H        -1.065832         3.411542         3.770794
 H         1.608979         3.929889         2.817011
 H         1.228544         2.338142         3.283732
 H        -0.122297         3.274868        -0.352252
