19
Iteration:  4362charge 0 multiplicity 1
 O         0.355416         0.204956         0.540653
 C        -0.554817         1.273008         0.566589
 C        -2.024269         1.058510         0.221036
 C        -1.706061         1.657112         1.633395
 C        -1.294958         3.144633         1.635968
 C        -0.576077         3.476414         2.947154
 C         0.808032         3.766211         2.417013
 O         1.040553         2.826599         1.326577
 C        -0.219077         2.815065         0.582761
 H         0.497910        -0.166176         1.406161
 H        -2.300202         1.721631        -0.593758
 H        -2.241775         0.035637        -0.086727
 H        -1.826908         0.984928         2.508471
 H        -2.037888         3.960780         1.541672
 H        -1.032287         4.349453         3.433533
 H        -0.700293         2.739572         3.768937
 H         0.839445         4.729784         1.925335
 H         1.675933         3.520720         3.112762
 H        -0.250422         3.422223        -0.309466
