19
Iteration:  3526charge 0 multiplicity 1
 O         0.369775         0.206339         0.470702
 C        -0.579933         1.217910         0.592896
 C        -1.992566         1.149790         0.174297
 C        -1.844057         1.587720         1.652868
 C        -1.330792         3.055640         1.703856
 C        -0.616444         3.628173         2.905906
 C         0.829608         3.816254         2.376498
 O         1.124427         2.751443         1.443829
 C        -0.157335         2.684633         0.636276
 H         1.106922         0.733102         0.886968
 H        -2.464972         1.896424        -0.457587
 H        -2.450291         0.215170         0.081241
 H        -2.332547         1.184538         2.543462
 H        -2.022472         3.829212         1.211638
 H        -1.113160         4.591844         3.177787
 H        -0.624238         2.786921         3.639542
 H         0.759534         4.783742         1.719030
 H         1.640067         3.831871         3.047007
 H         0.046470         3.222518        -0.353915
