19
Iteration:  2914
 O         0.163598         0.130489         0.513139
 C        -0.600613         1.230846         0.586635
 C        -2.010389         1.075654         0.167970
 C        -1.687210         1.508923         1.554530
 C        -1.316186         3.077440         1.621501
 C        -0.549087         3.595575         2.963626
 C         0.872290         3.898126         2.391815
 O         1.122102         2.867132         1.422727
 C        -0.148026         2.765794         0.662521
 H         0.916840         0.302502         1.054755
 H        -2.526931         1.842299        -0.441856
 H        -2.293347         0.002717         0.131065
 H        -2.001753         0.972502         2.388205
 H        -2.083607         3.750277         1.178575
 H        -1.104783         4.467759         3.354557
 H        -0.535334         2.772040         3.606490
 H         0.889339         4.914912         2.052651
 H         1.621924         3.886121         3.187308
 H        -0.033826         3.386006        -0.235134
