19
Iteration:  1901charge 0 multiplicity 1
 O         0.319965         0.217183         0.694334
 C        -0.607629         1.307212         0.588573
 C        -1.954581         0.980490         0.223152
 C        -1.644269         1.647062         1.641145
 C        -1.372459         3.100211         1.625695
 C        -0.639554         3.649996         2.824789
 C         0.923309         3.396103         2.525650
 O         1.038040         3.010851         1.179782
 C        -0.243874         2.831986         0.519135
 H         0.992222         0.569377         1.258025
 H        -2.481675         1.607041        -0.488404
 H        -2.358919        -0.004661         0.331810
 H        -1.899607         1.167403         2.572492
 H        -2.123588         3.932658         1.401575
 H        -0.975948         4.679546         3.113346
 H        -0.844239         3.040735         3.688789
 H         1.607201         4.298784         2.537040
 H         1.312501         2.683740         3.235262
 H        -0.337476         3.516567        -0.387659
