19
Iteration:  3200
 O         0.281658         0.159559         0.549369
 C        -0.567727         1.262411         0.610296
 C        -2.002751         1.191581         0.186294
 C        -1.655997         1.514729         1.661834
 C        -1.387789         3.061920         1.614906
 C        -0.581375         3.580828         2.840126
 C         0.881061         3.864032         2.381649
 O         1.022911         2.873446         1.423711
 C        -0.189581         2.697156         0.621507
 H         0.882253        -0.061317         1.234978
 H        -2.255597         2.077582        -0.529323
 H        -2.504202         0.265517         0.121045
 H        -1.744395         0.768113         2.426815
 H        -2.067225         3.768936         1.169887
 H        -1.076522         4.319705         3.415033
 H        -0.610864         2.729133         3.423920
 H         1.073560         4.761399         1.903626
 H         1.570621         3.553562         3.221019
 H         0.055204         3.310947        -0.319936
