19
Iteration:  2105
 O         0.298172         0.038087         0.489573
 C        -0.474812         1.244946         0.658960
 C        -1.937329         1.174021         0.338565
 C        -1.556428         1.566400         1.742810
 C        -1.351666         3.081299         1.637902
 C        -0.678709         3.854420         2.714932
 C         0.790135         3.283824         2.619755
 O         0.962983         3.195886         1.166674
 C        -0.177901         2.782184         0.594605
 H         1.185127         0.246076         0.970561
 H        -2.380024         1.831092        -0.435728
 H        -2.249460         0.025551         0.139879
 H        -2.129357         0.952789         2.463665
 H        -2.208953         3.624169         1.277017
 H        -0.714386         4.921449         2.592957
 H        -1.090549         3.705293         3.719057
 H         1.787774         3.575367         3.044512
 H         0.601390         2.257007         3.025165
 H        -0.189141         3.375945        -0.359017
