19
Iteration:  1452
 O         0.458639         0.322632         0.616298
 C        -0.651253         1.230271         0.590260
 C        -2.113465         1.139980         0.326961
 C        -1.621086         1.591055         1.688344
 C        -1.329059         3.058298         1.574898
 C        -0.733502         3.746104         2.752179
 C         0.875566         3.421799         2.566936
 O         1.107376         2.879755         1.212629
 C        -0.211409         2.696052         0.534649
 H         1.117454         0.933559         1.104214
 H        -2.647101         1.879847        -0.380803
 H        -2.538354         0.193373         0.396051
 H        -1.803126         1.061135         2.559897
 H        -2.115071         3.673119         1.138339
 H        -0.839679         4.865705         2.820360
 H        -1.089317         3.368821         3.693976
 H         1.424623         4.397806         2.728425
 H         1.227834         2.667088         3.300107
 H        -0.227389         3.209376        -0.406844
