19
Iteration:  1473charge 0 multiplicity 1
 O         0.417870         0.249351         0.497240
 C        -0.540361         1.239608         0.651555
 C        -1.971033         0.993560         0.332176
 C        -1.853321         1.645178         1.715751
 C        -1.368175         3.117422         1.556756
 C        -0.566816         3.770072         2.751536
 C         0.871489         3.415085         2.580802
 O         1.005600         2.965086         1.231024
 C        -0.218241         2.741087         0.615122
 H         1.352493         0.484477         0.894781
 H        -2.479264         1.566344        -0.578389
 H        -2.207010        -0.030635         0.293283
 H        -2.352556         1.293057         2.562511
 H        -2.155915         3.757189         1.317379
 H        -0.609574         4.891635         2.704500
 H        -0.953409         3.529270         3.705213
 H         1.570793         4.288614         2.737081
 H         1.074197         2.641553         3.301484
 H        -0.108644         3.178857        -0.405677
