19
Iteration:  1266
 O         0.484988         0.303613         0.726521
 C        -0.600482         1.267119         0.630998
 C        -2.043629         1.038328         0.247557
 C        -1.665430         1.621238         1.609731
 C        -1.419691         3.160897         1.556035
 C        -0.594987         3.731832         2.768423
 C         0.830352         3.212666         2.581592
 O         1.030653         2.992460         1.164023
 C        -0.253525         2.816148         0.567324
 H         1.249733         0.865582         0.831801
 H        -2.699354         1.533559        -0.399051
 H        -2.467729         0.003959         0.480084
 H        -1.894872         1.108146         2.621222
 H        -2.214294         3.929857         1.260727
 H        -0.428695         4.856776         2.830035
 H        -1.056890         3.466731         3.708099
 H         1.621274         3.983857         2.826063
 H         1.010357         2.277234         3.148665
 H        -0.248741         3.158033        -0.467255
