19
Iteration:  1245
 O         0.243166         0.335535         0.725715
 C        -0.631226         1.378341         0.593238
 C        -1.975732         0.996683         0.275541
 C        -1.709016         1.522887         1.681885
 C        -1.309677         2.959514         1.577575
 C        -0.582883         3.759268         2.717572
 C         0.846672         3.239523         2.602736
 O         1.086569         3.144296         1.156489
 C        -0.151852         2.806683         0.530331
 H         1.108677         0.523132         1.262953
 H        -2.397117         1.587255        -0.465945
 H        -2.092971        -0.126111         0.129959
 H        -1.817775         0.882313         2.646599
 H        -2.228104         3.664258         1.395144
 H        -0.638178         4.896798         2.462417
 H        -1.017201         3.659829         3.710545
 H         1.697066         3.805584         3.084486
 H         0.749609         2.241746         3.011705
 H        -0.326776         3.340481        -0.470256
