19
Iteration:  4423
 O         0.331044         0.183514         0.497633
 C        -0.574950         1.208184         0.549449
 C        -1.984867         1.183968         0.273012
 C        -1.678891         1.513007         1.673945
 C        -1.351887         3.074516         1.605361
 C        -0.592906         3.661122         2.944217
 C         0.789695         3.793629         2.489867
 O         1.048530         2.835259         1.347729
 C        -0.155543         2.668144         0.611658
 H         0.929255         0.393757        -0.242802
 H        -2.338916         1.916614        -0.566771
 H        -2.289715         0.102521         0.001738
 H        -2.322875         1.169429         2.525561
 H        -2.223579         3.724778         1.305031
 H        -1.028061         4.629370         3.353436
 H        -0.630127         2.840231         3.725259
 H         1.098625         4.872745         2.282837
 H         1.444504         3.666833         3.337029
 H         0.031622         3.238385        -0.378341
