19
Iteration:  1618charge 0 multiplicity 1
 O         0.366820         0.292202         0.706231
 C        -0.569192         1.300339         0.657427
 C        -1.968128         1.132530         0.311719
 C        -1.571199         1.571368         1.749526
 C        -1.388408         3.141442         1.556544
 C        -0.631401         3.652644         2.742533
 C         0.783050         3.257468         2.548369
 O         1.021949         2.995641         1.130843
 C        -0.235736         2.825769         0.477266
 H         1.077050         0.585172         1.414704
 H        -2.444021         1.806320        -0.396641
 H        -2.220186        -0.038974         0.161057
 H        -1.923993         1.043381         2.704545
 H        -2.223619         3.745694         1.300815
 H        -0.685441         4.754665         2.540481
 H        -1.039794         3.444286         3.778858
 H         1.544145         4.059562         2.786788
 H         1.071378         2.303915         2.964404
 H        -0.253426         3.213176        -0.539686
