19
Iteration:  4603charge 0 multiplicity 1
 O         0.371660         0.188675         0.631100
 C        -0.633115         1.190099         0.669701
 C        -2.049536         1.136447         0.076970
 C        -1.815878         1.562317         1.575516
 C        -1.315800         3.080170         1.616979
 C        -0.493383         3.433406         2.939892
 C         0.908506         3.746880         2.476758
 O         1.031668         3.051714         1.246441
 C        -0.219212         2.722925         0.670736
 H         1.212342         0.671309         0.717631
 H        -2.530901         1.761598        -0.613956
 H        -2.461918         0.111484         0.088513
 H        -2.366356         1.163297         2.539481
 H        -1.921256         3.964238         1.239598
 H        -0.914824         4.219959         3.489523
 H        -0.541076         2.505457         3.428584
 H         1.094214         4.856846         2.450820
 H         1.703094         3.363410         3.246720
 H        -0.156604         3.163853        -0.313398
