19
Iteration:   672
 O         0.418621         0.490409         0.798361
 C        -0.677455         1.323660         0.654130
 C        -2.040067         0.941467         0.206673
 C        -1.853378         1.508983         1.595083
 C        -1.329853         3.196610         1.608316
 C        -0.455656         3.794221         2.722361
 C         0.869229         3.114701         2.633420
 O         1.081811         2.987562         1.129025
 C        -0.238769         2.761429         0.527708
 H         1.202383         1.233982         0.960898
 H        -2.582199         1.626432        -0.361738
 H        -2.339168        -0.134908         0.199904
 H        -2.275474         0.924029         2.451431
 H        -2.221586         3.759449         1.329635
 H        -0.326731         4.778599         2.519038
 H        -0.976493         3.625167         3.669175
 H         1.815307         3.585267         3.028325
 H         0.803042         2.105780         3.072856
 H        -0.242391         3.261116        -0.447475
