19
Iteration:  4251charge 0 multiplicity 1
 O         0.279140         0.165874         0.663342
 C        -0.563075         1.289793         0.678649
 C        -2.032450         1.216298         0.098210
 C        -1.785740         1.555281         1.597638
 C        -1.348582         2.975639         1.698279
 C        -0.582232         3.410318         2.876913
 C         0.778453         3.887748         2.352303
 O         1.186442         2.895015         1.328502
 C        -0.093136         2.769536         0.690997
 H         0.375916        -0.136783        -0.290342
 H        -2.524783         2.051921        -0.555444
 H        -2.392715         0.174061         0.076272
 H        -1.936960         0.961974         2.477516
 H        -2.220312         3.658361         1.423681
 H        -1.057050         4.315543         3.243302
 H        -0.114122         2.640086         3.559631
 H         0.759432         4.946862         1.850302
 H         1.474714         3.821366         3.240851
 H        -0.136172         3.428412        -0.166649
