19
Iteration:  2683
 O         0.231624         0.222250         0.416168
 C        -0.600211         1.251430         0.660048
 C        -2.038401         1.027897         0.175448
 C        -1.780032         1.560120         1.574007
 C        -1.272133         3.084331         1.709822
 C        -0.581499         3.592413         2.915245
 C         0.865067         3.980066         2.310174
 O         1.103389         2.764060         1.485347
 C        -0.159033         2.655772         0.668372
 H         1.074138         0.429518         0.934188
 H        -2.324415         1.848333        -0.478756
 H        -2.140384        -0.132780         0.033733
 H        -2.226031         1.007074         2.497095
 H        -1.979984         3.853954         1.335445
 H        -1.059548         4.551752         3.348335
 H        -0.358941         2.836475         3.794631
 H         1.080444         4.935697         1.804132
 H         1.575602         3.964090         3.128003
 H        -0.061528         3.186476        -0.343708
