19
Iteration:  4061
 O         0.257439         0.174926         0.556674
 C        -0.567668         1.288318         0.646597
 C        -2.014245         1.130856         0.122109
 C        -1.800984         1.474429         1.619520
 C        -1.373032         3.016595         1.681440
 C        -0.518734         3.538759         2.890942
 C         0.849145         3.933194         2.404663
 O         1.114392         2.878049         1.349184
 C        -0.129518         2.747884         0.621163
 H         0.463589         0.065432         1.479378
 H        -2.364120         2.036800        -0.519810
 H        -2.226751         0.138961        -0.312316
 H        -1.998418         0.846343         2.530605
 H        -2.238706         3.629697         1.268735
 H        -0.925685         4.361598         3.499959
 H        -0.270407         2.770844         3.596985
 H         0.973236         4.828487         1.886538
 H         1.495091         3.687455         3.200204
 H        -0.046422         3.318850        -0.328169
