19
Iteration:  3775
 O         0.194963         0.152613         0.564437
 C        -0.580822         1.228638         0.536568
 C        -2.113313         1.080219         0.205197
 C        -1.629925         1.548068         1.575888
 C        -1.298711         3.095075         1.605133
 C        -0.584369         3.510456         2.898328
 C         0.842851         3.870621         2.452690
 O         1.027262         2.931773         1.414759
 C        -0.050502         2.736250         0.579460
 H         0.841287         0.508060         1.182604
 H        -2.612428         1.898779        -0.506042
 H        -2.099264         0.002175        -0.012878
 H        -1.867230         0.892711         2.497798
 H        -2.087587         3.796268         1.387339
 H        -0.961496         4.262537         3.621220
 H        -0.469291         2.753414         3.627896
 H         0.950330         4.934004         2.136978
 H         1.677079         3.717211         3.189057
 H         0.193595         3.144088        -0.399144
