19
Iteration:  1420charge 0 multiplicity 1
 O         0.323097         0.242316         0.604145
 C        -0.554659         1.295626         0.575174
 C        -1.974020         1.037545         0.343078
 C        -1.693128         1.632111         1.676409
 C        -1.343869         3.096335         1.566088
 C        -0.693418         3.735546         2.779630
 C         0.905954         3.412020         2.543510
 O         1.047915         2.888170         1.226750
 C        -0.230333         2.838349         0.556589
 H         1.206677         0.444752         0.920993
 H        -2.712188         1.461234        -0.385016
 H        -2.098228         0.010942         0.418279
 H        -1.753041         1.126640         2.576057
 H        -2.208748         3.675317         1.134980
 H        -0.736877         4.883107         2.707440
 H        -1.132525         3.433923         3.740776
 H         1.552110         4.330256         2.720678
 H         1.235214         2.651395         3.319921
 H        -0.139114         3.419648        -0.306094
