19
Iteration:  3234charge 0 multiplicity 1
 O         0.312625         0.259228         0.518505
 C        -0.610465         1.264608         0.574294
 C        -2.060723         1.034036         0.194270
 C        -1.770419         1.641397         1.622838
 C        -1.319807         3.090338         1.590669
 C        -0.612105         3.571001         2.951563
 C         0.850421         3.770789         2.367457
 O         1.134163         2.782586         1.425253
 C        -0.150406         2.703091         0.659409
 H         1.133668         0.722792         0.794550
 H        -2.614227         1.432776        -0.672646
 H        -2.553525         0.008222         0.391585
 H        -1.858317         0.997811         2.466694
 H        -1.939677         3.828109         1.072302
 H        -0.956642         4.535287         3.207688
 H        -0.744503         2.896676         3.789262
 H         0.916751         4.761016         1.960370
 H         1.590417         3.941228         3.213065
 H         0.109299         3.390427        -0.213355
