19
Iteration:  1917
 O         0.361980         0.257648         0.659554
 C        -0.581342         1.266428         0.579946
 C        -2.110724         1.040094         0.359420
 C        -1.690970         1.618834         1.588273
 C        -1.361176         3.139851         1.534449
 C        -0.595621         3.564107         2.825556
 C         0.861332         3.426146         2.593711
 O         1.091500         3.075767         1.139246
 C        -0.185730         2.821586         0.552643
 H         1.010097         0.374604         1.435801
 H        -2.658454         1.536469        -0.468323
 H        -2.255804        -0.082620         0.511699
 H        -1.934979         0.983886         2.509064
 H        -2.227747         3.630230         1.169273
 H        -0.685875         4.634062         2.960544
 H        -0.950863         3.114960         3.782012
 H         1.295240         4.351916         2.924628
 H         1.323631         2.520780         3.077393
 H        -0.048704         3.183318        -0.467405
