19
Iteration:   192
 O         0.432485         0.347926         0.548359
 C        -0.721250         1.228850         0.640382
 C        -2.184416         0.951296         0.215916
 C        -1.798765         1.610846         1.601824
 C        -1.296006         3.111874         1.590689
 C        -0.492850         3.732688         2.752942
 C         0.962867         3.597531         2.539964
 O         1.118945         2.811276         1.383848
 C        -0.299809         2.686339         0.631937
 H         1.183934         0.898940         0.616485
 H        -2.685330         1.391361        -0.660226
 H        -2.543674        -0.083449         0.396814
 H        -2.095483         1.106126         2.537682
 H        -1.973733         3.929092         1.048510
 H        -0.825854         4.759016         2.872336
 H        -0.815491         3.398847         3.756842
 H         1.530647         4.648229         2.381188
 H         1.597805         3.075207         3.316351
 H        -0.083022         3.384592        -0.229842
