19
Iteration:  3710charge 0 multiplicity 1
 O         0.340082         0.192883         0.629557
 C        -0.625037         1.194006         0.597902
 C        -2.050813         1.125779         0.153329
 C        -1.810419         1.536745         1.607042
 C        -1.333392         3.075997         1.626930
 C        -0.553165         3.519639         2.846539
 C         0.925021         3.794179         2.491534
 O         1.103553         2.955322         1.292385
 C        -0.185111         2.700733         0.676835
 H         1.173067         0.637866         0.899099
 H        -2.229454         2.013571        -0.604968
 H        -2.355283         0.075277         0.044444
 H        -2.588736         1.183649         2.360441
 H        -2.054202         3.804522         1.201650
 H        -1.082384         4.412569         3.310578
 H        -0.678769         2.631118         3.486932
 H         1.114299         4.817316         2.162066
 H         1.675301         3.491486         3.230276
 H        -0.324172         3.285614        -0.206697
