19
Iteration:  2516
 O         0.442831         0.314518         0.608717
 C        -0.510414         1.327544         0.661429
 C        -1.954414         0.953831         0.361401
 C        -1.680103         1.693726         1.707246
 C        -1.418128         3.243242         1.563987
 C        -0.599735         3.746595         2.774041
 C         0.796770         3.062798         2.591525
 O         1.001177         3.018887         1.131772
 C        -0.290349         2.835850         0.532518
 H         1.294679         0.666873         0.946178
 H        -2.535319         1.438746        -0.503669
 H        -2.123822        -0.154385         0.483763
 H        -2.073904         1.300652         2.603999
 H        -2.150836         3.888281         1.108257
 H        -0.340011         4.792266         2.580526
 H        -1.184309         3.593695         3.729395
 H         1.573778         3.602552         3.052048
 H         0.798650         2.048744         2.996624
 H        -0.335659         3.230714        -0.521360
