19
Iteration:   950
 O         0.402093         0.238538         0.719899
 C        -0.597191         1.286244         0.523040
 C        -2.118628         1.051107         0.328822
 C        -1.704603         1.631804         1.654969
 C        -1.340335         3.109376         1.521191
 C        -0.617265         3.702736         2.800778
 C         0.820431         3.229796         2.622110
 O         1.078261         3.152002         1.178116
 C        -0.150387         2.785170         0.483516
 H         0.878347         0.328702         1.514493
 H        -2.677600         1.601150        -0.523614
 H        -2.343882        -0.011586         0.436433
 H        -1.689089         1.103379         2.603916
 H        -2.191181         3.768964         1.180569
 H        -0.650675         4.839938         2.680665
 H        -0.949597         3.301951         3.724326
 H         1.532805         3.962761         2.997793
 H         1.139921         2.218972         3.015097
 H        -0.087799         3.189576        -0.583364
