19
Iteration:  2282charge 0 multiplicity 1
 O         0.262525         0.168439         0.502543
 C        -0.527192         1.267951         0.619804
 C        -2.040070         0.960113         0.427686
 C        -1.586781         1.645423         1.710550
 C        -1.262527         3.091835         1.485520
 C        -0.657759         3.781754         2.721463
 C         0.771346         3.167398         2.692097
 O         1.042407         3.315085         1.218625
 C        -0.156552         2.766854         0.549485
 H         1.060592         0.379287         0.928076
 H        -2.785252         1.660549        -0.204803
 H        -2.173796        -0.084757         0.418333
 H        -1.544513         1.251147         2.677384
 H        -2.113101         3.545341         1.016058
 H        -0.537794         4.839759         2.446496
 H        -1.180969         3.580100         3.600600
 H         1.608317         3.645293         3.284553
 H         0.692875         2.102345         2.918708
 H        -0.241054         3.277971        -0.475252
