19
Iteration:  3274charge 0 multiplicity 1
 O         0.333197         0.218663         0.483701
 C        -0.611080         1.240245         0.675181
 C        -1.949433         1.128542         0.236254
 C        -1.705677         1.651327         1.644302
 C        -1.344191         3.073533         1.583225
 C        -0.631655         3.569613         2.862985
 C         0.820553         3.713367         2.425935
 O         1.060474         2.840246         1.349373
 C        -0.166368         2.707187         0.639279
 H         1.015034         0.255363         1.178455
 H        -2.338510         1.890305        -0.507427
 H        -2.404916         0.181524         0.193171
 H        -1.957998         1.152815         2.573044
 H        -2.132159         3.758070         1.232716
 H        -0.989757         4.585468         3.302421
 H        -0.802508         2.950391         3.769966
 H         1.016624         4.772694         2.022416
 H         1.647207         3.391053         3.072453
 H        -0.147252         3.203375        -0.341745
