19
Iteration:  2572charge 0 multiplicity 1
 O         0.328383         0.206646         0.540227
 C        -0.535039         1.277571         0.707805
 C        -1.993101         1.093504         0.333350
 C        -1.701966         1.592216         1.753230
 C        -1.381602         3.061966         1.575402
 C        -0.587814         3.669628         2.675081
 C         0.834904         3.359701         2.638062
 O         1.018785         3.154497         1.161663
 C        -0.132146         2.748622         0.533749
 H         1.108857         0.436591         1.012466
 H        -2.517460         1.823167        -0.413122
 H        -2.430250         0.171912         0.221284
 H        -1.954645         1.108254         2.692958
 H        -2.220130         3.605856         1.150539
 H        -0.728977         4.744649         2.875024
 H        -1.056337         3.207253         3.632609
 H         1.560863         4.095038         2.959767
 H         0.946588         2.399676         3.163302
 H        -0.150002         3.094908        -0.498715
