19
Iteration:  4105charge 0 multiplicity 1
 O         0.347666         0.171173         0.497724
 C        -0.566762         1.238840         0.637315
 C        -2.089575         1.151894         0.225445
 C        -1.781251         1.562277         1.632070
 C        -1.325109         3.133404         1.627997
 C        -0.582423         3.557006         2.881553
 C         0.823547         3.833581         2.390242
 O         1.096305         2.833699         1.423887
 C        -0.136628         2.706698         0.606172
 H         1.209709         0.503583         0.765728
 H        -2.592690         1.885684        -0.518118
 H        -2.250292         0.056722         0.104764
 H        -2.003762         0.871727         2.511761
 H        -2.046911         3.988732         1.332897
 H        -1.145237         4.263633         3.487870
 H        -0.633867         2.686656         3.493662
 H         0.917139         4.789612         1.923559
 H         1.520105         3.598570         3.155629
 H        -0.028557         3.163628        -0.376813
