19
Iteration:  2129
 O         0.232681         0.122318         0.444569
 C        -0.564336         1.237795         0.724837
 C        -1.942155         0.980268         0.355591
 C        -1.695768         1.611625         1.745378
 C        -1.345596         3.147750         1.540972
 C        -0.658730         3.735394         2.677448
 C         0.821855         3.224720         2.634331
 O         1.090521         3.364017         1.248069
 C        -0.152934         2.737210         0.539220
 H         1.052796         0.354075         0.844166
 H        -2.435744         1.500376        -0.418676
 H        -2.148743        -0.157253         0.276765
 H        -1.748019         1.099252         2.784977
 H        -2.188769         3.787626         1.298407
 H        -0.577800         4.878508         2.667887
 H        -1.174333         3.568816         3.624961
 H         1.588321         3.881789         3.164564
 H         0.986183         2.224391         3.119476
 H         0.072420         3.093086        -0.432604
