19
Iteration:  2635charge 0 multiplicity 1
 O         0.340456         0.307671         0.544859
 C        -0.635410         1.300843         0.641524
 C        -2.092167         1.105774         0.223391
 C        -1.673452         1.541074         1.714435
 C        -1.284565         3.029519         1.589567
 C        -0.650987         3.657735         2.849725
 C         0.811995         3.657374         2.459787
 O         1.064513         2.778235         1.313032
 C        -0.120512         2.751095         0.564303
 H         1.031670         0.606443         1.107953
 H        -2.534352         1.891054        -0.492880
 H        -2.421456         0.133093         0.304590
 H        -1.663833         0.932872         2.573580
 H        -2.071996         3.646367         1.152879
 H        -0.925690         4.635343         3.127689
 H        -0.746171         3.003936         3.628453
 H         1.114605         4.663681         2.232622
 H         1.585694         3.368070         3.192967
 H         0.040108         3.313052        -0.435213
