19
Iteration:  1410
 O         0.350399         0.179887         0.515104
 C        -0.551291         1.293843         0.563940
 C        -2.003817         0.954729         0.343560
 C        -1.727527         1.674836         1.672445
 C        -1.371741         3.156575         1.594533
 C        -0.624719         3.775310         2.784807
 C         0.837675         3.415856         2.605684
 O         1.115093         2.947110         1.186559
 C        -0.213029         2.779316         0.636694
 H         1.035236         0.580557         1.148823
 H        -2.474971         1.291704        -0.577576
 H        -2.191772        -0.007272         0.619124
 H        -2.084317         1.197236         2.517728
 H        -2.248369         3.846405         1.228561
 H        -0.858746         4.907509         2.664483
 H        -1.092822         3.443426         3.747245
 H         1.512724         4.300211         2.629745
 H         1.221884         2.582182         3.289492
 H        -0.259553         3.315699        -0.288974
