19
Iteration:  3876
 O         0.176380         0.208752         0.476678
 C        -0.594447         1.275590         0.588996
 C        -2.023004         1.044247         0.215479
 C        -1.577527         1.567106         1.694216
 C        -1.273419         3.104543         1.639067
 C        -0.675833         3.542059         2.843864
 C         0.843510         3.822793         2.426890
 O         1.063764         2.841597         1.417954
 C        -0.108199         2.776059         0.609547
 H         0.944818         0.209125         1.079481
 H        -2.421452         1.890004        -0.494615
 H        -2.171483        -0.070344         0.122965
 H        -1.710143         1.008613         2.592457
 H        -2.046233         3.762904         1.228419
 H        -1.236434         4.476785         3.072768
 H        -0.578094         2.823254         3.633339
 H         0.976329         4.835731         2.043243
 H         1.461444         3.426950         3.171295
 H        -0.008187         3.334979        -0.345910
