19
Iteration:   228charge 0 multiplicity 1
 O         0.314196         0.169285         0.551393
 C        -0.529125         1.274993         0.652369
 C        -2.030246         1.170944         0.321336
 C        -1.605516         1.637818         1.647353
 C        -1.305772         3.125554         1.593681
 C        -0.618414         3.655878         2.826225
 C         0.832126         3.582028         2.413140
 O         0.964099         2.741514         1.337851
 C        -0.206226         2.805343         0.554068
 H         1.061074         0.355053         1.202649
 H        -2.534814         1.864707        -0.433941
 H        -2.301445         0.062159         0.246375
 H        -1.717323         1.173891         2.585855
 H        -2.016790         3.916212         1.154523
 H        -0.881403         4.729239         2.928184
 H        -0.864530         3.009125         3.693333
 H         0.984143         4.672878         2.046321
 H         1.565849         3.353246         3.285658
 H        -0.043285         3.344795        -0.402160
