19
Iteration:  3790charge 0 multiplicity 1
 O         0.257233         0.178906         0.516656
 C        -0.628442         1.272658         0.539969
 C        -2.018495         1.098798         0.189132
 C        -1.688741         1.575251         1.617400
 C        -1.246000         3.057595         1.590995
 C        -0.561434         3.550364         2.957799
 C         0.795926         3.887521         2.426985
 O         1.115040         2.825560         1.428209
 C        -0.145416         2.704774         0.616748
 H         1.048863         0.396055         1.066695
 H        -2.721247         1.691569        -0.489478
 H        -2.599190         0.131927         0.213973
 H        -2.039835         1.052524         2.458481
 H        -1.977090         3.787427         1.089234
 H        -1.252801         4.331691         3.358374
 H        -0.539787         2.627597         3.671609
 H         0.793000         4.926642         1.986380
 H         1.567146         3.963052         3.166079
 H        -0.168628         3.344302        -0.273521
