19
Iteration:  4780charge 0 multiplicity 1
 O         0.346615         0.082707         0.256551
 C        -0.522955         1.212002         0.671593
 C        -2.062493         1.186599         0.295753
 C        -1.753023         1.616059         1.665940
 C        -1.326064         3.054076         1.678224
 C        -0.593630         3.570820         2.916096
 C         0.784699         3.874279         2.425088
 O         0.998340         2.851662         1.446531
 C        -0.064924         2.708950         0.638181
 H         1.179876         0.512354         0.478207
 H        -2.362091         1.735842        -0.548155
 H        -2.375139         0.126778         0.118319
 H        -2.224448         1.012401         2.528319
 H        -2.106176         3.853425         1.364753
 H        -1.031078         4.533597         3.328823
 H        -0.528539         2.975754         3.774324
 H         0.895716         4.786374         1.905681
 H         1.609422         3.781437         3.299216
 H         0.032125         3.143977        -0.356412
