19
Iteration:   426charge 0 multiplicity 1
 O         0.386506         0.240843         0.693128
 C        -0.619554         1.256148         0.605242
 C        -2.028940         1.020788         0.278347
 C        -1.721589         1.602817         1.637905
 C        -1.353632         3.158326         1.635147
 C        -0.547140         3.773226         2.820216
 C         0.883551         3.247173         2.615588
 O         1.036640         3.013784         1.139138
 C        -0.274884         2.821944         0.489598
 H         1.268621         0.672650         1.098365
 H        -2.396565         1.615333        -0.570284
 H        -2.334784        -0.054706         0.178091
 H        -1.994926         0.976126         2.536481
 H        -2.095430         3.924383         1.146171
 H        -0.557480         4.870805         2.695918
 H        -0.909691         3.676498         3.843238
 H         1.491209         4.118406         2.748035
 H         1.176194         2.328442         3.202653
 H        -0.323452         3.330047        -0.547696
