19
Iteration:  1746
 O         0.400582         0.390239         0.564668
 C        -0.637515         1.345937         0.646156
 C        -1.967285         0.906934         0.334132
 C        -1.705568         1.659099         1.683034
 C        -1.408821         3.121112         1.605028
 C        -0.590510         3.840633         2.713276
 C         0.856734         3.287002         2.616155
 O         1.056901         2.849277         1.230734
 C        -0.238030         2.776727         0.514881
 H         1.218333         0.868961         0.799943
 H        -2.451217         1.559622        -0.355012
 H        -2.292162        -0.208037         0.542731
 H        -1.932248         0.987728         2.588372
 H        -2.312837         3.694434         1.172244
 H        -0.581347         4.919156         2.486235
 H        -0.964799         3.746287         3.708184
 H         1.698451         3.937789         3.036109
 H         0.946855         2.339896         3.150437
 H        -0.207103         3.172535        -0.577979
