19
Iteration:  2249
 O         0.234645         0.133491         0.519210
 C        -0.469946         1.279038         0.713431
 C        -1.904512         1.099022         0.382472
 C        -1.518661         1.666411         1.708260
 C        -1.379104         3.099525         1.523443
 C        -0.696205         3.771466         2.814327
 C         0.732221         3.209892         2.636307
 O         1.049222         3.217677         1.142677
 C        -0.162909         2.721220         0.510895
 H         1.170978         0.329840         0.795456
 H        -2.519087         1.754944        -0.348379
 H        -2.211034         0.078613         0.327874
 H        -1.739582         1.209543         2.651770
 H        -2.262367         3.589427         1.137014
 H        -0.879294         4.854829         2.820155
 H        -1.216587         3.392085         3.655624
 H         1.587264         3.798532         3.074708
 H         0.778310         2.164767         2.974760
 H        -0.308863         3.156331        -0.521255
