19
Iteration:  3418charge 0 multiplicity 1
 O         0.284732         0.191198         0.533048
 C        -0.627788         1.228597         0.649910
 C        -1.949175         1.108608         0.189287
 C        -1.739205         1.596380         1.619856
 C        -1.349246         3.107240         1.645193
 C        -0.539526         3.549354         2.954321
 C         0.856640         3.824443         2.398488
 O         1.037747         2.873295         1.316769
 C        -0.152073         2.700706         0.573276
 H         0.851183         0.159109         1.329762
 H        -2.147613         1.785986        -0.614692
 H        -2.393203         0.091536         0.006563
 H        -2.159093         0.955406         2.387231
 H        -1.998560         3.950298         1.340966
 H        -1.018220         4.451771         3.480576
 H        -0.616920         2.817442         3.766855
 H         0.994336         4.888928         2.236646
 H         1.570549         3.443307         3.134446
 H        -0.089034         3.133113        -0.399786
