19
Iteration:   154
 O         0.246873         0.195054         0.535714
 C        -0.587761         1.283413         0.753288
 C        -1.971803         1.140364         0.282772
 C        -1.564445         1.630671         1.767292
 C        -1.335954         3.114872         1.521282
 C        -0.665230         3.648117         2.758541
 C         0.854958         3.465434         2.470940
 O         1.086632         2.959793         1.222081
 C        -0.209778         2.768017         0.565401
 H         0.935532         0.215682         1.294104
 H        -2.442273         1.844788        -0.382362
 H        -2.270480         0.060723         0.167324
 H        -1.855667         1.074874         2.644699
 H        -2.159365         3.632129         1.195550
 H        -0.826640         4.757280         2.847457
 H        -1.014125         3.181025         3.691799
 H         1.395529         4.300754         2.777704
 H         1.190116         2.783834         3.263629
 H        -0.376834         3.159466        -0.433365
