19
Iteration:    72
 O         0.320002         0.265300         0.699561
 C        -0.589064         1.323293         0.795942
 C        -2.015708         1.110497         0.307768
 C        -1.670627         1.645598         1.696679
 C        -1.335311         3.106672         1.547629
 C        -0.638977         3.653597         2.734443
 C         0.831421         3.169404         2.527098
 O         1.076694         3.110230         1.094888
 C        -0.166758         2.761792         0.541215
 H         1.272078         0.692474         0.831680
 H        -2.407373         1.862283        -0.444642
 H        -2.347770         0.105655         0.165588
 H        -2.085499         1.183436         2.640597
 H        -2.193010         3.778744         1.164578
 H        -0.733027         4.741398         2.898602
 H        -0.985095         3.196045         3.689625
 H         1.591542         3.962182         2.772100
 H         0.915544         2.090319         2.865149
 H        -0.203329         3.231947        -0.471024
