19
Iteration:  1772
 O         0.492559         0.311838         0.459665
 C        -0.570482         1.275179         0.709571
 C        -2.005256         1.051937         0.439604
 C        -1.651387         1.672988         1.833387
 C        -1.336332         3.140215         1.471073
 C        -0.622386         3.807407         2.653376
 C         0.708097         3.145097         2.657436
 O         1.015624         3.003363         1.202837
 C        -0.225011         2.739129         0.513156
 H         1.324164         0.780953         0.836041
 H        -2.681374         1.775491        -0.169886
 H        -2.383784         0.096730         0.563385
 H        -1.977222         1.278571         2.734104
 H        -2.137282         3.669509         1.013324
 H        -0.432647         4.844972         2.475738
 H        -1.226529         3.724212         3.544420
 H         1.525390         3.689325         3.171597
 H         0.693934         2.089092         3.061284
 H        -0.247343         3.125203        -0.534631
