19
Iteration:   453charge 0 multiplicity 1
 O         0.378432         0.274144         0.597287
 C        -0.567468         1.289702         0.739173
 C        -1.955896         1.086947         0.351070
 C        -1.687820         1.621886         1.748229
 C        -1.427107         3.162119         1.621118
 C        -0.571174         3.845627         2.666801
 C         0.771495         3.027189         2.515540
 O         1.033427         3.158825         1.183685
 C        -0.207989         2.714216         0.533625
 H         1.354133         0.563047         0.873814
 H        -2.350375         1.664768        -0.504236
 H        -2.155448         0.048617         0.383522
 H        -2.031566         1.061623         2.596262
 H        -2.157166         3.722652         1.131844
 H        -0.456758         4.921505         2.410872
 H        -0.884731         3.709826         3.721523
 H         1.618474         3.520358         3.049387
 H         0.531346         2.034607         2.868026
 H        -0.158437         2.961797        -0.500150
