19
Iteration:   822charge 0 multiplicity 1
 O         0.438678         0.270852         0.500876
 C        -0.664236         1.166529         0.645145
 C        -2.133421         1.073026         0.366938
 C        -1.721197         1.652587         1.673331
 C        -1.332972         3.103226         1.481474
 C        -0.604960         3.809564         2.784029
 C         0.833050         3.420584         2.640801
 O         1.103253         2.886821         1.304567
 C        -0.127286         2.718432         0.520951
 H         1.170552         0.869613         0.644414
 H        -2.701952         1.613099        -0.449915
 H        -2.475466         0.010210         0.457015
 H        -2.261692         1.341968         2.559323
 H        -2.136642         3.781817         1.184668
 H        -0.799666         4.952867         2.759988
 H        -1.089809         3.478350         3.722879
 H         1.501348         4.340448         2.717584
 H         1.211298         2.643567         3.300645
 H         0.078763         3.208062        -0.504806
