19
Iteration:  1393charge 0 multiplicity 1
 O         0.363767         0.245980         0.441986
 C        -0.591501         1.143731         0.744516
 C        -2.033617         0.937479         0.302071
 C        -1.808341         1.661248         1.677761
 C        -1.306353         3.160155         1.554764
 C        -0.598093         3.831189         2.788391
 C         0.897392         3.405981         2.613889
 O         1.043931         3.108540         1.252948
 C        -0.171238         2.688120         0.539971
 H         1.143951         0.221799         0.989646
 H        -2.620777         1.462251        -0.471056
 H        -2.294208        -0.206260         0.433156
 H        -2.281031         1.195107         2.630491
 H        -2.085791         3.735135         1.093148
 H        -0.619955         4.879056         2.742887
 H        -0.974702         3.487092         3.766390
 H         1.610635         4.135753         2.976352
 H         1.006574         2.515809         3.210585
 H         0.083212         3.072434        -0.520875
