19
Iteration:   527
 O         0.325377         0.367399         0.501702
 C        -0.660922         1.277408         0.608167
 C        -2.028238         0.995682         0.319459
 C        -1.715736         1.583053         1.707333
 C        -1.357045         3.078070         1.559242
 C        -0.579810         3.872574         2.691503
 C         0.870924         3.372144         2.568501
 O         1.115637         2.840764         1.308263
 C        -0.202100         2.753041         0.631168
 H         1.193383         0.731730         0.976499
 H        -2.487897         1.459857        -0.495066
 H        -2.189330        -0.013801         0.524815
 H        -2.073702         0.990558         2.516792
 H        -2.206345         3.719193         1.169239
 H        -0.603099         4.907263         2.487764
 H        -0.944757         3.674137         3.650356
 H         1.609412         4.220522         2.887213
 H         1.063377         2.531955         3.243830
 H        -0.192995         3.359836        -0.316149
