19
Iteration:  4267charge 0 multiplicity 1
 O         0.229863         0.184750         0.687897
 C        -0.612159         1.282870         0.616628
 C        -2.062607         1.234256         0.111105
 C        -1.722979         1.426612         1.552550
 C        -1.309218         3.005484         1.683242
 C        -0.513297         3.476907         2.942156
 C         0.864370         3.944144         2.340822
 O         1.099926         2.964546         1.388172
 C        -0.110121         2.650926         0.653294
 H         0.645531        -0.032413        -0.173418
 H        -2.430812         2.053853        -0.430344
 H        -2.273729         0.222975        -0.215276
 H        -2.257329         0.778136         2.280883
 H        -2.049997         3.685274         1.293865
 H        -1.095838         4.084842         3.687967
 H        -0.483699         2.636378         3.635419
 H         0.700946         4.962856         1.900027
 H         1.726810         3.928725         3.029624
 H        -0.013956         3.131805        -0.376102
