19
Iteration:  4375charge 0 multiplicity 1
 O         0.276639         0.300015         0.529428
 C        -0.594296         1.322988         0.637366
 C        -1.955612         1.096684         0.152768
 C        -1.655594         1.562412         1.596551
 C        -1.346771         3.046956         1.670877
 C        -0.597481         3.531038         2.914344
 C         0.903803         3.745116         2.377681
 O         0.996530         2.823876         1.346386
 C        -0.170543         2.761740         0.617022
 H         0.712601         0.173313         1.434114
 H        -2.593751         1.588782        -0.482610
 H        -2.281067         0.128978         0.406769
 H        -2.058889         1.007713         2.423914
 H        -2.145659         3.628261         1.254795
 H        -1.061680         4.476673         3.378715
 H        -0.546922         2.690915         3.641103
 H         1.102912         4.810964         2.124518
 H         1.687481         3.557747         3.156113
 H        -0.038390         3.247374        -0.322213
