19
Iteration:  4914
 O         0.305820         0.123031         0.556482
 C        -0.616769         1.288349         0.541928
 C        -1.987473         1.107319         0.238665
 C        -1.652099         1.629579         1.626435
 C        -1.304616         3.121892         1.590057
 C        -0.566781         3.368438         2.950462
 C         0.780233         3.791518         2.475364
 O         1.058151         2.965113         1.282273
 C        -0.212272         2.773419         0.607268
 H         1.088671         0.380297         1.074527
 H        -2.371618         1.697287        -0.644379
 H        -2.285338         0.103419         0.335056
 H        -2.120756         1.151002         2.459111
 H        -1.979551         4.034210         1.436246
 H        -0.846273         4.304694         3.558461
 H        -0.718480         2.527231         3.608889
 H         0.896957         4.789340         2.296700
 H         1.759165         3.374381         3.056167
 H        -0.380096         3.354456        -0.334798
