19
Iteration:  4142
 O         0.305270         0.114541         0.555285
 C        -0.601736         1.296259         0.605981
 C        -2.043848         1.149869         0.158051
 C        -1.726354         1.511952         1.603946
 C        -1.300267         3.096412         1.698344
 C        -0.670471         3.642931         2.926866
 C         0.856858         3.758875         2.434164
 O         1.110168         2.890063         1.358043
 C        -0.145375         2.703292         0.622900
 H         1.039619         0.302644        -0.030433
 H        -2.745534         1.709672        -0.479385
 H        -2.336125         0.099326         0.054620
 H        -1.849113         0.904308         2.454152
 H        -2.055787         3.708232         1.290680
 H        -0.950358         4.663504         3.210659
 H        -0.681470         2.987762         3.828413
 H         1.075076         4.798696         2.236796
 H         1.600438         3.691858         3.241646
 H        -0.020046         3.234104        -0.384082
