19
Iteration:   697charge 0 multiplicity 1
 O         0.464246         0.389618         0.773826
 C        -0.657546         1.305268         0.631201
 C        -2.019488         0.968842         0.230135
 C        -1.747359         1.745910         1.587616
 C        -1.377720         3.193817         1.602241
 C        -0.531344         3.694037         2.802630
 C         0.873857         3.142112         2.590626
 O         1.003951         2.949006         1.148829
 C        -0.250603         2.766840         0.505946
 H         1.150131         0.970830         0.968346
 H        -2.530803         1.398642        -0.785780
 H        -2.316644        -0.001786         0.601781
 H        -2.059630         1.192090         2.427947
 H        -2.225836         3.765401         1.229334
 H        -0.424331         4.802188         2.651481
 H        -0.886997         3.431989         3.836896
 H         1.628176         3.834711         2.812289
 H         1.070450         2.186678         3.130021
 H        -0.223802         3.301738        -0.407405
