19
Iteration:  1194
 O         0.351064         0.108336         0.507769
 C        -0.546127         1.233062         0.779232
 C        -1.977438         1.126216         0.344068
 C        -1.668497         1.704425         1.711335
 C        -1.282578         3.139237         1.541007
 C        -0.712972         3.770121         2.783924
 C         0.784365         3.281249         2.569631
 O         1.027675         3.227819         1.146411
 C        -0.112009         2.617592         0.556114
 H         1.216431         0.234644         0.846740
 H        -2.654950         1.790850        -0.370398
 H        -2.243719         0.040912         0.447411
 H        -2.148936         1.102899         2.470624
 H        -1.994765         3.844106         1.099896
 H        -0.914609         4.850666         2.915475
 H        -1.020949         3.305332         3.746431
 H         1.447598         3.947163         3.110468
 H         0.848306         2.243235         3.019721
 H        -0.256677         2.905584        -0.550739
