19
Iteration:  3591
 O         0.193453         0.091446         0.493501
 C        -0.573410         1.235481         0.575172
 C        -2.054605         1.116928         0.109902
 C        -1.594387         1.563175         1.630935
 C        -1.259480         2.998558         1.634659
 C        -0.645561         3.622275         2.890581
 C         0.855180         3.845667         2.436855
 O         1.071013         2.956350         1.440220
 C        -0.094185         2.732979         0.646102
 H         0.795717        -0.169536         1.237349
 H        -2.563101         1.962226        -0.286123
 H        -2.367361         0.139121         0.095153
 H        -2.026881         0.880564         2.371372
 H        -2.098166         3.614838         1.179742
 H        -1.028376         4.598252         3.239501
 H        -0.634188         2.835027         3.670632
 H         0.848831         4.952541         2.180435
 H         1.557817         3.740604         3.199843
 H        -0.165862         3.391470        -0.286588
