19
Iteration:  2998charge 0 multiplicity 1
 O         0.256896         0.073040         0.511770
 C        -0.628548         1.281330         0.562781
 C        -1.985579         1.075393         0.177857
 C        -1.677983         1.568427         1.674322
 C        -1.321294         3.112980         1.658601
 C        -0.612845         3.639229         2.913665
 C         0.845422         3.737048         2.427340
 O         1.073859         2.870820         1.344147
 C        -0.134887         2.799412         0.651462
 H         1.150944         0.382303         0.917442
 H        -2.460873         1.604022        -0.689317
 H        -2.266130         0.004483         0.224544
 H        -2.144782         1.108283         2.478331
 H        -2.070096         3.745038         1.188862
 H        -0.936774         4.647555         3.176998
 H        -0.852383         3.096025         3.856882
 H         1.015883         4.843336         2.079759
 H         1.641400         3.469757         3.141344
 H        -0.032341         3.517327        -0.228465
