19
Iteration:  3074charge 0 multiplicity 1
 O         0.332623         0.214336         0.595367
 C        -0.611364         1.236885         0.673084
 C        -2.000188         1.092194         0.100440
 C        -1.770559         1.585835         1.619052
 C        -1.265290         3.118567         1.677873
 C        -0.512721         3.541109         2.859482
 C         0.901851         3.776935         2.397993
 O         0.994345         2.890072         1.370528
 C        -0.298164         2.675172         0.638368
 H         1.198290         0.596397         0.715177
 H        -2.258205         1.844395        -0.602007
 H        -2.234013         0.024194        -0.043145
 H        -2.356766         1.174394         2.372076
 H        -2.011411         3.858054         1.404854
 H        -1.011208         4.413404         3.307169
 H        -0.508449         2.594676         3.495452
 H         1.285009         4.753141         2.085295
 H         1.570994         3.600676         3.185115
 H        -0.084039         3.240113        -0.330873
