19
Iteration:  2942
 O         0.270304         0.173336         0.440558
 C        -0.628266         1.236986         0.617107
 C        -1.991411         1.147694         0.207158
 C        -1.742271         1.589536         1.589249
 C        -1.267827         3.098051         1.693171
 C        -0.564251         3.571065         2.945357
 C         0.818872         3.912338         2.283843
 O         1.069329         2.729706         1.487047
 C        -0.133473         2.706712         0.647280
 H         1.013707         0.362717         1.028725
 H        -2.464799         1.781479        -0.584574
 H        -2.237143         0.132916         0.273739
 H        -2.087265         0.944082         2.453373
 H        -1.981598         3.827761         1.313289
 H        -1.219894         4.398127         3.203726
 H        -0.516232         2.795814         3.792462
 H         0.643027         4.915557         1.749318
 H         1.579194         4.018042         3.054200
 H         0.090488         3.310860        -0.288395
