19
Iteration:    27
 O         0.382214         0.493508         0.670531
 C        -0.639302         1.353852         0.674464
 C        -1.959311         0.879474         0.294708
 C        -1.825280         1.690743         1.632410
 C        -1.366183         3.215371         1.565002
 C        -0.523437         3.712897         2.790203
 C         0.913282         3.177971         2.547451
 O         1.052690         2.758382         1.185991
 C        -0.260044         2.877047         0.522359
 H         1.102494         0.993929         0.928341
 H        -2.510341         1.162686        -0.593714
 H        -2.165074        -0.155009         0.596209
 H        -2.171369         1.224123         2.571006
 H        -2.122832         4.009266         1.174588
 H        -0.492115         4.796527         2.775375
 H        -0.941498         3.481077         3.759370
 H         1.591900         4.056682         2.730158
 H         1.004618         2.245683         3.133017
 H        -0.181520         3.365523        -0.467702
