19
Iteration:  2276
 O         0.272706         0.088679         0.496861
 C        -0.533198         1.260528         0.623008
 C        -2.053895         1.023663         0.476215
 C        -1.585660         1.638037         1.750091
 C        -1.327677         3.076420         1.465556
 C        -0.621608         3.742972         2.684857
 C         0.709309         3.147679         2.649462
 O         1.038775         3.336333         1.226350
 C        -0.063942         2.858977         0.548138
 H         1.126922         0.434321         0.905222
 H        -2.594882         1.589197        -0.175723
 H        -2.175424        -0.118123         0.298740
 H        -1.511460         1.269406         2.820385
 H        -2.173888         3.671455         1.006161
 H        -0.627928         4.854886         2.512267
 H        -1.204439         3.475167         3.645042
 H         1.450912         3.713527         3.155419
 H         0.763513         2.047493         2.889990
 H        -0.167768         3.390732        -0.369217
