19
Iteration:    40
 O         0.480163         0.470430         0.735664
 C        -0.656218         1.299438         0.540912
 C        -2.086943         0.963581         0.361481
 C        -1.811874         1.763667         1.578588
 C        -1.267496         3.117274         1.559381
 C        -0.532853         3.665156         2.763428
 C         0.877989         3.189259         2.568821
 O         0.982843         2.870193         1.170145
 C        -0.238643         2.768031         0.557554
 H         1.122121         1.205721         1.044157
 H        -2.712741         1.338139        -0.582618
 H        -2.236612        -0.068233         0.644938
 H        -2.250098         1.276780         2.514524
 H        -1.994965         3.932326         1.251308
 H        -0.600106         4.790174         2.663086
 H        -0.930377         3.262488         3.740376
 H         1.771734         3.853991         2.754092
 H         1.340977         2.397467         3.263904
 H        -0.177263         3.462710        -0.320380
