19
Iteration:    59charge 0 multiplicity 1
 O         0.449066         0.350847         0.737867
 C        -0.616061         1.231964         0.642790
 C        -2.115291         1.078078         0.330527
 C        -1.772173         1.636406         1.692320
 C        -1.382377         3.193961         1.479865
 C        -0.565212         3.639896         2.812843
 C         0.884244         3.203849         2.564186
 O         1.113737         3.039706         1.135893
 C        -0.240535         2.758756         0.457944
 H         1.176864         0.969929         0.925457
 H        -2.525900         1.744806        -0.356295
 H        -2.632231         0.125728         0.326719
 H        -1.929771         1.045112         2.613421
 H        -2.215701         3.912308         1.114094
 H        -0.598445         4.695183         2.927522
 H        -1.039621         3.175422         3.649508
 H         1.608366         3.909198         3.099989
 H         1.126034         2.306593         3.175136
 H        -0.132311         3.054707        -0.592946
