19
Iteration:  1988
 O         0.337409         0.261620         0.645454
 C        -0.571438         1.259091         0.671001
 C        -2.015547         1.102558         0.268481
 C        -1.540199         1.511230         1.722510
 C        -1.360682         3.063049         1.574929
 C        -0.534663         3.825003         2.697528
 C         0.741433         3.126543         2.611082
 O         1.026316         3.201909         1.199649
 C        -0.232950         2.777109         0.545230
 H         1.190323         0.848015         0.552343
 H        -2.556636         1.618778        -0.443539
 H        -2.334213        -0.006254         0.395614
 H        -1.871833         0.858209         2.604990
 H        -2.262363         3.539009         1.052228
 H        -0.479698         4.959240         2.359065
 H        -0.939070         3.746456         3.735001
 H         1.592996         3.666535         3.086443
 H         0.583493         2.152761         3.064527
 H        -0.421357         3.331213        -0.383375
