19
Iteration:  4534charge 0 multiplicity 1
 O         0.306636         0.134081         0.634521
 C        -0.604554         1.212729         0.519555
 C        -2.045976         1.193728         0.069969
 C        -1.731536         1.517100         1.617550
 C        -1.261841         3.006090         1.692045
 C        -0.546396         3.484364         3.006104
 C         0.798552         3.937102         2.416326
 O         1.108349         2.960122         1.421086
 C        -0.162702         2.716250         0.618245
 H         0.594977        -0.197625        -0.260369
 H        -2.664006         1.911078        -0.627248
 H        -2.571101         0.223402         0.060452
 H        -2.298296         0.953011         2.263510
 H        -2.067427         3.668094         1.329318
 H        -1.022298         4.351145         3.333802
 H        -0.247184         2.633451         3.669397
 H         0.883110         4.936963         1.887555
 H         1.649454         3.940016         3.040955
 H        -0.087771         3.357325        -0.216531
