19
Iteration:  2139
 O         0.281149         0.213627         0.483522
 C        -0.597921         1.298809         0.697218
 C        -2.072310         0.966245         0.387667
 C        -1.656860         1.626894         1.734672
 C        -1.388520         3.119738         1.471370
 C        -0.632824         3.703094         2.730857
 C         0.881455         3.293144         2.658842
 O         1.064326         3.265275         1.233882
 C        -0.063796         2.732316         0.545523
 H         1.123845         0.370335         0.946908
 H        -2.548773         1.472486        -0.430819
 H        -2.043060        -0.272550         0.325740
 H        -1.949852         1.012400         2.686542
 H        -2.155350         3.748845         1.037989
 H        -0.810921         4.812311         2.705974
 H        -1.161655         3.201724         3.532954
 H         1.674296         3.900726         3.223408
 H         0.859707         2.208312         2.902796
 H         0.002436         3.113825        -0.494444
