19
Iteration:  4006
 O         0.219719         0.101707         0.545863
 C        -0.602793         1.183284         0.700505
 C        -1.968073         1.166294         0.222097
 C        -1.781143         1.609407         1.599236
 C        -1.336121         3.120783         1.620489
 C        -0.566322         3.400530         2.881739
 C         0.850663         3.876276         2.412287
 O         1.136793         2.991436         1.341323
 C        -0.120486         2.709767         0.651243
 H         1.090626         0.506062         0.742096
 H        -2.251794         1.868408        -0.681278
 H        -2.339056         0.140178         0.196507
 H        -2.444548         1.030666         2.239877
 H        -2.190174         3.698151         1.209765
 H        -1.082798         4.080936         3.572711
 H        -0.557945         2.538076         3.487196
 H         0.848780         4.931296         1.909389
 H         1.652355         3.957280         3.154863
 H         0.012580         3.054803        -0.438086
