19
Iteration:  2108
 O         0.287119         0.032690         0.483503
 C        -0.448788         1.258250         0.670783
 C        -1.946568         1.152230         0.351931
 C        -1.566415         1.586618         1.731029
 C        -1.352685         3.054549         1.614053
 C        -0.665656         3.832569         2.735888
 C         0.779329         3.283232         2.626366
 O         0.955643         3.211847         1.158610
 C        -0.153918         2.800200         0.595623
 H         1.168283         0.179923         0.894777
 H        -2.395740         1.726812        -0.379467
 H        -2.237765         0.089007         0.193819
 H        -2.237347         0.967908         2.444220
 H        -2.181721         3.633670         1.164909
 H        -0.639009         5.000461         2.558401
 H        -1.073962         3.777889         3.753003
 H         1.745156         3.602730         3.100131
 H         0.628421         2.241511         2.996344
 H        -0.253352         3.358851        -0.279900
