19
Iteration:  1012
 O         0.421742         0.145250         0.561469
 C        -0.573500         1.228253         0.701261
 C        -2.016764         1.037211         0.181640
 C        -1.863157         1.670638         1.662570
 C        -1.387079         3.088128         1.569891
 C        -0.501680         3.768574         2.766049
 C         0.935680         3.375571         2.658808
 O         1.037905         3.090372         1.192050
 C        -0.246916         2.721502         0.630094
 H         1.282488         0.668392         0.678997
 H        -2.428821         1.437672        -0.671586
 H        -2.354165        -0.022314         0.388840
 H        -2.526628         1.227873         2.521007
 H        -2.094024         3.871425         1.249280
 H        -0.728318         4.780993         2.683042
 H        -0.960147         3.564116         3.783202
 H         1.489532         4.276305         2.974863
 H         1.270077         2.524739         3.276806
 H        -0.310241         3.317805        -0.355338
