19
Iteration:  1553
 O         0.379505         0.256190         0.575961
 C        -0.567656         1.355969         0.626044
 C        -1.962683         1.006974         0.389824
 C        -1.634577         1.640871         1.753819
 C        -1.383943         3.137232         1.538954
 C        -0.643209         3.821713         2.713537
 C         0.754005         3.125521         2.572139
 O         1.064826         3.083141         1.168829
 C        -0.210799         2.797287         0.508334
 H         1.064300         0.355610         1.349816
 H        -2.582162         1.497531        -0.324067
 H        -1.904482        -0.168094         0.435188
 H        -1.813236         0.997365         2.686086
 H        -2.192211         3.821845         1.208140
 H        -0.599421         4.952844         2.593558
 H        -0.996875         3.548126         3.780250
 H         1.595024         3.587459         3.100587
 H         0.424026         2.244545         3.099654
 H        -0.166355         3.214933        -0.455265
