19
Iteration:  2494charge 0 multiplicity 1
 O         0.469256         0.507554         0.603985
 C        -0.596905         1.321972         0.685725
 C        -2.102263         1.004203         0.431966
 C        -1.780325         1.663333         1.721606
 C        -1.319692         3.110359         1.510351
 C        -0.620376         3.659378         2.704966
 C         0.800157         3.143407         2.576053
 O         1.128321         2.993194         1.203769
 C        -0.226078         2.739586         0.461521
 H         1.262578         1.141097         0.775021
 H        -2.595448         1.416498        -0.483109
 H        -2.357106        -0.085457         0.597141
 H        -1.983486         1.271543         2.697624
 H        -2.091822         3.735816         1.097355
 H        -0.649798         4.752715         2.756961
 H        -1.091467         3.186822         3.612133
 H         1.554394         3.725977         3.025474
 H         0.786958         2.187329         3.108731
 H        -0.095757         3.057095        -0.588189
