19
Iteration:  3724charge 0 multiplicity 1
 O         0.350636         0.149571         0.551535
 C        -0.597167         1.173293         0.782884
 C        -1.977712         1.169730         0.123563
 C        -1.876591         1.624235         1.585047
 C        -1.326308         3.012206         1.605787
 C        -0.551480         3.526787         2.888061
 C         0.891842         3.807084         2.470151
 O         1.081813         2.973512         1.301826
 C        -0.219559         2.692705         0.585112
 H         1.154901         0.554381         0.959326
 H        -2.434737         1.885406        -0.636037
 H        -2.656445         0.272688         0.053974
 H        -2.109211         0.943573         2.362292
 H        -2.080511         3.838567         1.362023
 H        -1.044335         4.384516         3.399541
 H        -0.460404         2.888006         3.817550
 H         1.236964         4.867039         2.407939
 H         1.528216         3.457946         3.231472
 H        -0.020546         2.957045        -0.468189
