19
Iteration:  4064
 O         0.272360         0.177591         0.550826
 C        -0.592948         1.301072         0.658577
 C        -2.007388         1.137397         0.150605
 C        -1.785617         1.487266         1.595939
 C        -1.341366         3.030957         1.677307
 C        -0.538014         3.539028         2.888551
 C         0.845293         3.900899         2.391937
 O         1.093471         2.873041         1.351756
 C        -0.143785         2.741205         0.642085
 H         0.437024         0.015553         1.506640
 H        -2.405277         1.962304        -0.520279
 H        -2.156779         0.137000        -0.321378
 H        -1.988643         0.756312         2.438294
 H        -2.121357         3.664871         1.324589
 H        -0.947476         4.382001         3.400127
 H        -0.217583         2.732539         3.553223
 H         0.950469         4.934748         1.876373
 H         1.535871         3.723957         3.204464
 H        -0.024890         3.319581        -0.329200
