19
Iteration:   972
 O         0.353987         0.328026         0.724058
 C        -0.588788         1.289408         0.635475
 C        -2.071015         1.109911         0.291984
 C        -1.637206         1.588355         1.678120
 C        -1.318193         3.101461         1.501941
 C        -0.657789         3.581189         2.731446
 C         0.864081         3.335766         2.584871
 O         1.077302         2.989896         1.165705
 C        -0.201510         2.838909         0.535662
 H         1.070188         0.580939         1.399588
 H        -2.627918         1.883916        -0.363628
 H        -2.415266         0.107654         0.227340
 H        -1.915630         1.185660         2.622119
 H        -2.237915         3.633084         1.159352
 H        -0.694609         4.721629         2.783993
 H        -1.079984         3.058719         3.551224
 H         1.517534         4.179742         2.786006
 H         1.147497         2.464606         3.264411
 H        -0.186329         3.059445        -0.551876
