19
Iteration:  4961charge 0 multiplicity 1
 O         0.349812         0.215710         0.436697
 C        -0.648317         1.212061         0.625768
 C        -2.038048         1.156343         0.128487
 C        -1.771036         1.542776         1.608770
 C        -1.238574         2.944429         1.739490
 C        -0.576734         3.584056         2.954596
 C         0.771453         3.877303         2.362032
 O         1.133409         2.870032         1.353892
 C        -0.179612         2.714946         0.726947
 H         1.060627         0.376122         1.065943
 H        -2.514067         1.962007        -0.476542
 H        -2.440525         0.111592        -0.133943
 H        -2.356445         0.948788         2.406828
 H        -2.011847         3.742193         1.463479
 H        -1.076264         4.429469         3.406179
 H        -0.436440         2.754077         3.732896
 H         0.774453         4.743873         1.844178
 H         1.718364         3.878511         3.011908
 H        -0.125152         3.386955        -0.091581
