19
Iteration:  4344
 O         0.379459         0.146231         0.535982
 C        -0.610938         1.260803         0.572239
 C        -2.065510         1.171594         0.204782
 C        -1.751183         1.587387         1.594708
 C        -1.347759         3.056259         1.606064
 C        -0.569518         3.452536         2.973390
 C         0.849486         3.825374         2.426850
 O         1.085338         2.951320         1.309386
 C        -0.113356         2.726916         0.616648
 H         0.611580        -0.006197         1.454060
 H        -2.666985         1.840008        -0.353898
 H        -2.473331         0.209750         0.382725
 H        -2.204995         1.166021         2.469363
 H        -2.058868         3.734537         1.158065
 H        -0.994238         4.308985         3.626152
 H        -0.515071         2.511664         3.532802
 H         0.721831         4.893685         2.084068
 H         1.605975         3.693302         3.195642
 H         0.000219         3.211015        -0.384980
