19
Iteration:  4219
 O         0.328824         0.135722         0.586000
 C        -0.587578         1.261010         0.639840
 C        -2.028096         1.140227         0.164237
 C        -1.723292         1.626308         1.537057
 C        -1.296005         3.093613         1.642011
 C        -0.534325         3.504929         2.963582
 C         0.819846         3.855911         2.465129
 O         0.997604         2.947419         1.345518
 C        -0.107436         2.654547         0.587302
 H         0.288801        -0.279371        -0.281158
 H        -2.583292         1.752174        -0.604866
 H        -2.350321         0.128047         0.301764
 H        -1.895278         1.147884         2.455587
 H        -2.129179         3.732737         1.376904
 H        -1.135365         4.207676         3.541766
 H        -0.282107         2.835824         3.839416
 H         0.981930         4.967898         2.273588
 H         1.553567         3.440480         3.201718
 H        -0.036197         3.194724        -0.361554
