19
Iteration:  1460
 O         0.479147         0.274086         0.571363
 C        -0.571198         1.245255         0.603180
 C        -2.085288         1.092004         0.354961
 C        -1.742950         1.613162         1.680736
 C        -1.351191         3.060858         1.590150
 C        -0.685786         3.773734         2.781750
 C         0.867726         3.398796         2.554677
 O         1.069381         2.906476         1.237309
 C        -0.189976         2.733409         0.537247
 H         1.102732         0.835313         1.054966
 H        -2.602758         1.865522        -0.352350
 H        -2.549471         0.103059         0.425611
 H        -2.132499         1.094557         2.592968
 H        -1.945488         3.736485         1.022409
 H        -0.924117         4.804838         2.631653
 H        -0.979101         3.439800         3.745451
 H         1.488485         4.310972         2.634247
 H         1.295106         2.669139         3.166823
 H        -0.269827         3.335496        -0.462451
