19
Iteration:   112
 O         0.268931         0.011374         0.571076
 C        -0.611194         1.121408         0.708932
 C        -2.092087         1.018702         0.222194
 C        -1.604831         1.589240         1.656805
 C        -1.278977         3.115518         1.625341
 C        -0.561483         3.829778         2.763231
 C         0.844639         3.252534         2.579332
 O         1.034613         3.398754         1.170632
 C        -0.136508         2.862793         0.622166
 H         0.759733        -0.147245         1.290931
 H        -2.508507         1.571636        -0.524766
 H        -2.491656        -0.001936         0.262128
 H        -1.982438         1.248083         2.638367
 H        -2.107089         3.713740         1.251558
 H        -0.568022         4.855001         2.472518
 H        -0.989541         3.628399         3.706742
 H         1.708209         3.764033         3.102148
 H         0.891735         2.206546         2.835509
 H        -0.132592         3.229227        -0.410138
