19
Iteration:  1324
 O         0.349467         0.257001         0.655706
 C        -0.607385         1.296842         0.577134
 C        -1.996575         0.941983         0.330668
 C        -1.658695         1.628365         1.675427
 C        -1.362448         3.117210         1.525777
 C        -0.571395         3.770913         2.721034
 C         0.804744         3.135750         2.616653
 O         1.041924         3.147108         1.247322
 C        -0.209346         2.828838         0.492732
 H         1.099221         0.653070         1.055898
 H        -2.576048         1.496304        -0.390682
 H        -2.136798        -0.048185         0.541263
 H        -1.872200         1.224565         2.598154
 H        -2.166979         3.925332         1.298628
 H        -0.340448         4.841347         2.492245
 H        -1.132954         3.686059         3.695427
 H         1.549254         3.769503         3.063140
 H         0.851271         2.170225         3.141429
 H        -0.174486         3.279763        -0.588314
