19
Iteration:  4686charge 0 multiplicity 1
 O         0.280949         0.238936         0.475658
 C        -0.567305         1.267191         0.591462
 C        -2.030784         1.111136         0.221584
 C        -1.831673         1.527609         1.675720
 C        -1.308319         3.062721         1.604530
 C        -0.596435         3.457058         2.969533
 C         0.848381         3.836467         2.431932
 O         1.135825         2.902604         1.336660
 C        -0.136575         2.681340         0.709869
 H         1.202935         0.602964         0.510114
 H        -2.276384         1.848782        -0.584240
 H        -2.245646         0.047924        -0.195285
 H        -2.338280         1.240485         2.505433
 H        -1.851936         3.806220         1.081253
 H        -1.088046         4.396378         3.398447
 H        -0.975000         2.637656         3.688210
 H         0.778174         4.866952         2.028916
 H         1.715058         3.725099         2.997002
 H         0.033567         3.328710        -0.242999
