19
Iteration:  1493
 O         0.274133         0.251782         0.469290
 C        -0.575316         1.247729         0.815422
 C        -1.947364         0.900332         0.297203
 C        -1.720855         1.620790         1.678903
 C        -1.368377         3.168217         1.567804
 C        -0.623483         3.831309         2.787488
 C         0.850689         3.304621         2.628315
 O         1.096043         3.114625         1.183648
 C        -0.192546         2.745532         0.606121
 H         1.233395         0.437756         0.676264
 H        -2.366283         1.324067        -0.683827
 H        -2.254534        -0.099473         0.400388
 H        -2.102270         1.011098         2.481182
 H        -2.065939         3.683857         0.938612
 H        -0.845563         4.815109         2.501250
 H        -1.069815         3.642743         3.719481
 H         1.644424         4.008086         2.855195
 H         1.057354         2.447756         3.204103
 H        -0.078376         3.150179        -0.480585
