19
Iteration:  3111
 O         0.266416         0.228099         0.641514
 C        -0.592128         1.290990         0.592760
 C        -2.078072         1.152201         0.118431
 C        -1.679142         1.560078         1.600553
 C        -1.262033         3.048014         1.667744
 C        -0.577907         3.433899         2.957490
 C         0.773660         3.836806         2.334721
 O         1.156069         2.851390         1.338507
 C        -0.136628         2.736132         0.613109
 H         0.694293         0.206692         1.478593
 H        -2.622534         1.816690        -0.667060
 H        -2.450951         0.096840        -0.113540
 H        -2.048807         1.079210         2.588401
 H        -1.875794         3.888593         1.343814
 H        -1.035765         4.333683         3.418626
 H        -0.530128         2.829047         3.778523
 H         0.472968         4.791323         1.846713
 H         1.645610         3.868029         3.052576
 H        -0.224733         3.210453        -0.390773
