19
Iteration:  3394
 O         0.258062         0.166111         0.672240
 C        -0.649765         1.296465         0.541079
 C        -2.023945         1.177868         0.145076
 C        -1.674940         1.542942         1.552822
 C        -1.295231         3.056901         1.669611
 C        -0.543445         3.482736         2.920769
 C         0.854514         3.844126         2.319368
 O         1.099811         2.786736         1.363924
 C        -0.163690         2.806977         0.657745
 H         1.032849         0.492115         1.214118
 H        -2.627433         1.775928        -0.482828
 H        -2.264407         0.081652         0.034089
 H        -1.922117         0.826626         2.308440
 H        -2.173814         3.768846         1.402294
 H        -1.202492         4.367464         3.261895
 H        -0.704071         2.877551         3.841322
 H         0.700293         4.864245         1.957987
 H         1.656978         3.816983         3.026304
 H        -0.110327         3.473235        -0.185452
