19
Iteration:  3713charge 0 multiplicity 1
 O         0.347162         0.182667         0.615409
 C        -0.632311         1.171421         0.629987
 C        -2.022690         1.143151         0.167166
 C        -1.832086         1.529826         1.583908
 C        -1.325913         3.073591         1.624160
 C        -0.558197         3.522026         2.848741
 C         0.947594         3.810711         2.502843
 O         1.104224         2.958151         1.298621
 C        -0.205404         2.707167         0.663838
 H         1.144241         0.649886         0.890790
 H        -2.273454         1.963848        -0.559240
 H        -2.470476         0.115827         0.024204
 H        -2.513697         1.173017         2.335586
 H        -2.075654         3.847938         1.235981
 H        -1.072668         4.432856         3.203118
 H        -0.570898         2.591189         3.472682
 H         1.091925         4.865977         2.193209
 H         1.568749         3.436540         3.266821
 H        -0.348003         3.264293        -0.298383
