19
Iteration:  1665
 O         0.332861         0.026551         0.546044
 C        -0.544256         1.187999         0.762596
 C        -2.003230         1.006612         0.330001
 C        -1.793596         1.676249         1.679104
 C        -1.297279         3.087201         1.588100
 C        -0.595309         3.776402         2.760424
 C         0.828804         3.271083         2.625184
 O         1.055840         3.393702         1.135137
 C        -0.158745         2.752506         0.513989
 H         1.119187         0.279114         1.041460
 H        -2.324573         1.550774        -0.586908
 H        -2.303314         0.043915         0.385956
 H        -2.240731         1.261587         2.527664
 H        -2.158636         3.743103         1.272839
 H        -0.673355         4.905907         2.768745
 H        -1.019083         3.327906         3.760333
 H         1.586029         3.874580         3.038447
 H         0.957387         2.242885         2.903326
 H        -0.247120         3.057352        -0.496042
