19
Iteration:   886
 O         0.389648         0.287356         0.671390
 C        -0.602528         1.219185         0.666771
 C        -2.080332         1.133958         0.312379
 C        -1.628135         1.584974         1.714092
 C        -1.295639         3.086609         1.498959
 C        -0.598293         3.807883         2.726369
 C         0.772944         3.161679         2.573558
 O         1.061088         3.115090         1.188185
 C        -0.212219         2.718076         0.580721
 H         1.139743         0.930805         0.698922
 H        -2.519534         1.782117        -0.650865
 H        -2.607325         0.108529         0.303306
 H        -1.902730         1.194598         2.691658
 H        -2.119295         3.553017         0.930870
 H        -0.454109         4.983989         2.664524
 H        -1.093878         3.518927         3.665992
 H         1.538777         3.777867         3.037035
 H         0.672517         2.190564         3.067264
 H         0.017262         3.073779        -0.401657
