19
Iteration:  2348
 O         0.467103         0.395909         0.584502
 C        -0.624900         1.250752         0.617261
 C        -2.150792         0.997830         0.236433
 C        -1.692424         1.595184         1.661711
 C        -1.369459         3.052184         1.612191
 C        -0.567552         3.783130         2.787045
 C         0.869325         3.434533         2.556062
 O         1.067693         2.873157         1.250557
 C        -0.233783         2.687040         0.571363
 H         1.088023         0.872907         1.174225
 H        -2.701455         1.876409        -0.393461
 H        -2.552696         0.038277         0.103650
 H        -1.786793         1.258296         2.663730
 H        -2.105140         3.804551         1.340872
 H        -0.886941         4.820310         2.663116
 H        -0.785943         3.456984         3.756882
 H         1.587356         4.280543         2.731026
 H         1.053715         2.607118         3.209086
 H        -0.078958         3.163927        -0.486119
