19
Iteration:   692
 O         0.466888         0.422348         0.781329
 C        -0.691577         1.272175         0.621680
 C        -2.082190         0.943891         0.163517
 C        -1.747559         1.741782         1.608597
 C        -1.372100         3.154398         1.603583
 C        -0.496321         3.740125         2.804987
 C         0.886896         3.113517         2.568980
 O         1.011885         2.967744         1.178951
 C        -0.258959         2.766795         0.527339
 H         1.144189         1.206141         1.074560
 H        -2.413132         1.211176        -0.736190
 H        -2.337841        -0.086180         0.473822
 H        -1.972896         1.144363         2.546219
 H        -2.044817         3.863758         1.042876
 H        -0.507646         4.812405         2.680467
 H        -0.813689         3.520672         3.805790
 H         1.737061         3.833845         2.909654
 H         1.078592         2.191487         3.130163
 H        -0.241999         3.370520        -0.443458
