19
Iteration:  2870charge 0 multiplicity 1
 O         0.295148         0.145324         0.538709
 C        -0.638108         1.275571         0.740059
 C        -1.987398         1.142836         0.150674
 C        -1.753880         1.599220         1.667413
 C        -1.290482         3.141545         1.642104
 C        -0.685326         3.495430         2.930186
 C         0.866226         3.729662         2.462094
 O         1.117123         2.946857         1.209051
 C        -0.135142         2.673711         0.634094
 H         1.171090         0.235008         0.890234
 H        -2.130466         1.856952        -0.677418
 H        -2.353803         0.157541         0.210190
 H        -2.153789         1.002807         2.360693
 H        -1.968005         3.932965         1.274981
 H        -1.050131         4.495829         3.239153
 H        -0.757083         2.789393         3.710305
 H         0.898889         4.805408         2.162359
 H         1.671181         3.575507         3.186949
 H        -0.285307         3.069405        -0.407933
