19
Iteration:  2406
 O         0.285006         0.071643         0.502223
 C        -0.536296         1.199245         0.647901
 C        -2.034833         1.144865         0.364287
 C        -1.635064         1.577515         1.749976
 C        -1.327359         3.029759         1.553464
 C        -0.656018         3.766731         2.756143
 C         0.790364         3.302644         2.610954
 O         1.049444         3.325472         1.138261
 C        -0.055638         2.739111         0.594821
 H         1.120968         0.204631         1.040038
 H        -2.527016         1.810885        -0.298106
 H        -2.405858        -0.009271         0.260618
 H        -2.255406         1.333874         2.713175
 H        -2.103415         3.601942         1.061276
 H        -0.819593         4.871416         2.871098
 H        -1.169765         3.338746         3.689747
 H         1.407131         4.035248         3.053124
 H         1.148714         2.346857         3.090760
 H        -0.134891         3.098413        -0.436167
