19
Iteration:  3419charge 0 multiplicity 1
 O         0.288600         0.188823         0.527025
 C        -0.626272         1.221138         0.661224
 C        -1.954343         1.106778         0.186948
 C        -1.742945         1.599694         1.620163
 C        -1.345447         3.120818         1.643571
 C        -0.540970         3.542104         2.949573
 C         0.857771         3.826544         2.397679
 O         1.040554         2.876464         1.317025
 C        -0.157578         2.700057         0.579190
 H         0.864916         0.158088         1.336770
 H        -2.173895         1.811537        -0.629330
 H        -2.378291         0.101862         0.020725
 H        -2.165391         0.945281         2.392736
 H        -2.028063         3.908281         1.335034
 H        -1.042052         4.421192         3.437509
 H        -0.620890         2.824550         3.752317
 H         1.032425         4.884636         2.259194
 H         1.598061         3.449942         3.156100
 H        -0.087220         3.137402        -0.396467
