19
Iteration:   219charge 0 multiplicity 1
 O         0.342139         0.272647         0.556312
 C        -0.574849         1.357943         0.623030
 C        -2.025032         1.110872         0.295785
 C        -1.723203         1.618781         1.682967
 C        -1.353850         3.099926         1.588577
 C        -0.611505         3.691621         2.856068
 C         0.877420         3.591740         2.401409
 O         1.009961         2.702830         1.332532
 C        -0.161903         2.739396         0.536754
 H         1.039779         0.420272         1.265832
 H        -2.708051         1.656300        -0.403109
 H        -2.072788         0.025043         0.193417
 H        -1.983519         1.121956         2.638423
 H        -2.100367         3.754559         1.178933
 H        -0.927731         4.758299         2.947587
 H        -0.837742         3.277979         3.849331
 H         1.313798         4.530343         2.177120
 H         1.613603         3.131827         3.107001
 H         0.050779         3.281875        -0.360405
