19
Iteration:   356charge 0 multiplicity 1
 O         0.241212         0.184339         0.554841
 C        -0.644357         1.218870         0.655643
 C        -1.996159         1.054638         0.192003
 C        -1.805816         1.623346         1.619567
 C        -1.265929         3.100220         1.578101
 C        -0.504929         3.568742         2.888004
 C         0.943060         3.829750         2.409899
 O         1.082070         2.854482         1.360021
 C        -0.220665         2.732138         0.637817
 H         0.992370         0.304255         1.079084
 H        -2.295213         1.733852        -0.677190
 H        -2.331812         0.013092         0.108741
 H        -2.309016         1.219218         2.451562
 H        -2.065261         3.841427         1.391168
 H        -1.114776         4.404180         3.354463
 H        -0.632515         2.691298         3.604063
 H         0.976440         4.810854         2.057162
 H         1.792165         3.590851         3.134838
 H        -0.098181         3.327884        -0.280365
