19
Iteration:  2400charge 0 multiplicity 1
 O         0.263162         0.057384         0.498470
 C        -0.498525         1.233430         0.688497
 C        -2.029331         1.099566         0.364374
 C        -1.663734         1.572540         1.751671
 C        -1.303492         3.086268         1.518404
 C        -0.703294         3.788076         2.795274
 C         0.812959         3.326348         2.621392
 O         1.071887         3.280843         1.130827
 C        -0.104855         2.730414         0.582793
 H         1.060268         0.301051         0.924802
 H        -2.485805         1.795429        -0.412237
 H        -2.341620         0.160141         0.282989
 H        -1.948637         1.042572         2.621835
 H        -2.125771         3.701593         1.058804
 H        -0.862086         4.841739         2.978134
 H        -1.104486         3.164169         3.594678
 H         1.455791         4.137770         3.093412
 H         1.150401         2.339093         2.988934
 H        -0.124529         3.169110        -0.442747
