19
Iteration:  3306charge 0 multiplicity 1
 O         0.199457         0.130743         0.607817
 C        -0.616194         1.254825         0.544506
 C        -2.055979         1.124156         0.186286
 C        -1.655852         1.540642         1.600255
 C        -1.275185         2.944961         1.587183
 C        -0.574440         3.596060         2.842604
 C         0.839920         3.801440         2.475515
 O         1.107548         2.962525         1.372053
 C        -0.142499         2.751132         0.630679
 H         0.966018         0.529393         1.050696
 H        -2.521305         1.970518        -0.390315
 H        -2.521220         0.203004         0.041825
 H        -1.666848         0.869977         2.453852
 H        -2.111692         3.640566         1.328993
 H        -1.112220         4.591720         3.150347
 H        -0.731215         2.854665         3.705470
 H         1.159185         4.860983         2.293007
 H         1.611900         3.547632         3.147787
 H        -0.073580         3.368470        -0.231553
