19
Iteration:  2373charge 0 multiplicity 1
 O         0.240095         0.189418         0.568190
 C        -0.530918         1.325384         0.614494
 C        -1.958218         1.012737         0.296520
 C        -1.631386         1.628277         1.709375
 C        -1.374810         3.076801         1.571317
 C        -0.623389         3.717612         2.768759
 C         0.861610         3.401706         2.608327
 O         1.024873         3.026679         1.204069
 C        -0.164769         2.800577         0.559359
 H         1.079839         0.490800         0.867079
 H        -2.537326         1.489627        -0.480075
 H        -2.100636        -0.168551         0.330634
 H        -2.137060         1.215319         2.666404
 H        -2.222988         3.699537         1.299435
 H        -0.748694         4.842328         2.800092
 H        -0.958414         3.250715         3.726702
 H         1.294035         4.367232         2.720279
 H         1.386865         2.581429         3.190738
 H        -0.084639         3.316011        -0.387217
