19
Iteration:   229charge 0 multiplicity 1
 O         0.312276         0.161092         0.553118
 C        -0.533613         1.267347         0.648308
 C        -2.028644         1.168489         0.321195
 C        -1.593080         1.642627         1.645929
 C        -1.301809         3.133097         1.588947
 C        -0.620061         3.650158         2.821190
 C         0.831439         3.593810         2.419951
 O         0.965122         2.745118         1.337548
 C        -0.205997         2.807440         0.557256
 H         1.023377         0.344920         1.157332
 H        -2.504684         1.880127        -0.425806
 H        -2.343464         0.097540         0.255408
 H        -1.714983         1.150054         2.599300
 H        -2.019973         3.878724         1.181810
 H        -0.880739         4.724343         2.961709
 H        -0.873344         2.998110         3.671886
 H         0.973130         4.640356         2.049363
 H         1.545690         3.377442         3.282217
 H        -0.075227         3.338473        -0.384690
