19
Iteration:  1103
 O         0.407022         0.379628         0.506634
 C        -0.576850         1.285875         0.680074
 C        -1.995193         0.983796         0.409126
 C        -1.809001         1.649834         1.777767
 C        -1.420464         3.126587         1.548840
 C        -0.657266         3.778706         2.649719
 C         0.762992         3.158506         2.621602
 O         1.143499         3.035677         1.252861
 C        -0.102879         2.702383         0.519221
 H         1.266924         0.763804         0.513795
 H        -2.616302         1.545954        -0.244957
 H        -2.318016        -0.006670         0.507226
 H        -2.064062         1.294255         2.746553
 H        -2.092981         3.710812         0.846420
 H        -0.447620         4.865097         2.397325
 H        -1.158211         3.850502         3.576589
 H         1.621689         3.710899         3.029688
 H         0.769119         2.164526         3.107401
 H        -0.032477         3.328780        -0.475197
