19
Iteration:  3903charge 0 multiplicity 1
 O         0.354612         0.163080         0.421429
 C        -0.598265         1.191875         0.574569
 C        -2.057137         1.074562         0.307360
 C        -1.814972         1.624636         1.670887
 C        -1.304470         3.158731         1.605774
 C        -0.672979         3.596665         2.933127
 C         0.865947         3.818794         2.503130
 O         1.133543         2.853576         1.328094
 C        -0.156456         2.713953         0.630773
 H         1.174360         0.235833         0.960481
 H        -2.262567         1.704417        -0.479264
 H        -2.400856         0.067366         0.137564
 H        -2.176360         1.034637         2.578390
 H        -1.994695         3.800923         0.934010
 H        -1.161467         4.506395         3.269287
 H        -0.647222         2.677909         3.614557
 H         1.008208         4.861241         2.095794
 H         1.779486         3.526374         3.145854
 H        -0.119771         3.259844        -0.323169
