19
Iteration:  3875
 O         0.173425         0.206993         0.479016
 C        -0.589801         1.281894         0.584634
 C        -2.027881         1.042869         0.214305
 C        -1.580488         1.564784         1.697147
 C        -1.274214         3.102614         1.634984
 C        -0.671923         3.550655         2.852806
 C         0.847240         3.823858         2.428922
 O         1.068844         2.834216         1.411303
 C        -0.106776         2.778282         0.614515
 H         0.930730         0.241463         1.079549
 H        -2.392638         1.885769        -0.490843
 H        -2.176007        -0.078097         0.104483
 H        -1.691807         0.974845         2.571041
 H        -2.042245         3.718439         1.207090
 H        -1.262416         4.470848         3.093668
 H        -0.613992         2.837023         3.627751
 H         0.940001         4.851690         2.033705
 H         1.457743         3.448361         3.198900
 H        -0.033002         3.343101        -0.363713
