19
Iteration:  4161
 O         0.290397         0.082187         0.586637
 C        -0.535937         1.189419         0.534006
 C        -2.045473         1.181474         0.245027
 C        -1.578979         1.548999         1.610700
 C        -1.344239         3.038006         1.593774
 C        -0.576335         3.636505         2.921360
 C         0.857755         3.795957         2.525460
 O         1.012338         2.925529         1.350728
 C        -0.198404         2.757746         0.636235
 H         0.919598         0.207609        -0.158125
 H        -2.305777         1.962131        -0.570222
 H        -2.672526         0.257778         0.011351
 H        -2.135467         1.046263         2.433554
 H        -2.183854         3.723976         1.217377
 H        -1.109576         4.525415         3.113680
 H        -0.762530         2.859627         3.625809
 H         1.243991         4.795737         2.222891
 H         1.613259         3.405573         3.171347
 H        -0.238829         3.403441        -0.220484
