19
Iteration:  1073
 O         0.288312         0.156949         0.530472
 C        -0.525908         1.271305         0.582052
 C        -1.965651         0.987994         0.402401
 C        -1.525559         1.694054         1.700570
 C        -1.346595         3.201794         1.523840
 C        -0.635309         3.826318         2.749853
 C         0.733791         3.110329         2.625071
 O         0.960525         3.165802         1.250558
 C        -0.123440         2.789325         0.503108
 H         1.112118         0.279069         1.148765
 H        -2.712080         1.474153        -0.350490
 H        -2.292697        -0.090109         0.693540
 H        -1.641616         1.218724         2.702372
 H        -2.139123         3.720707         0.952727
 H        -0.380352         4.914991         2.509476
 H        -1.261073         3.700286         3.672577
 H         1.566951         3.696217         3.096583
 H         0.641910         2.083203         3.110457
 H        -0.062724         3.371094        -0.449571
