19
Iteration:  3250charge 0 multiplicity 1
 O         0.361476         0.261264         0.471639
 C        -0.641617         1.246591         0.619689
 C        -2.067264         1.012659         0.254347
 C        -1.834828         1.598535         1.587390
 C        -1.336129         3.092907         1.586133
 C        -0.570695         3.640443         2.829714
 C         0.921376         3.844034         2.495338
 O         1.070465         2.787203         1.420787
 C        -0.129175         2.687433         0.644828
 H         1.238160         0.634307         0.793077
 H        -2.559082         1.634303        -0.512063
 H        -2.151142        -0.044354         0.165580
 H        -2.423802         1.227982         2.480405
 H        -2.115714         3.859826         1.307496
 H        -1.131089         4.392805         3.503579
 H        -0.541882         2.762583         3.599512
 H         1.206181         4.802128         1.960766
 H         1.625444         3.457645         3.174848
 H        -0.008919         3.117382        -0.327364
