19
Iteration:  4902charge 0 multiplicity 1
 O         0.309621         0.219490         0.511066
 C        -0.555685         1.223716         0.663106
 C        -2.015995         1.091659         0.239484
 C        -1.819646         1.685339         1.593189
 C        -1.307317         3.089329         1.634060
 C        -0.575347         3.399082         2.966826
 C         0.859321         3.703987         2.501114
 O         1.070038         3.020075         1.227019
 C        -0.145946         2.708951         0.593557
 H         1.133976         0.517345         0.982519
 H        -2.519855         1.580032        -0.600487
 H        -2.361668         0.083345         0.339855
 H        -2.138006         1.148253         2.408384
 H        -2.082773         3.793277         1.256348
 H        -1.131979         4.287986         3.414194
 H        -0.616491         2.585863         3.631701
 H         0.804113         4.725803         2.291200
 H         1.737427         3.576262         3.238237
 H        -0.021132         3.141041        -0.438341
