19
Iteration:  3416
 O         0.276948         0.194732         0.545154
 C        -0.623369         1.243847         0.629939
 C        -1.944659         1.109251         0.190793
 C        -1.732948         1.591370         1.618596
 C        -1.353515         3.080267         1.648689
 C        -0.540848         3.565562         2.963090
 C         0.853390         3.816074         2.402427
 O         1.033319         2.868541         1.316018
 C        -0.144126         2.701495         0.567593
 H         0.828657         0.168664         1.317489
 H        -2.125895         1.760390        -0.607214
 H        -2.405386         0.097286        -0.006307
 H        -2.150562         0.978078         2.390331
 H        -1.950703         4.008005         1.349949
 H        -0.956164         4.489901         3.532994
 H        -0.596463         2.791245         3.783121
 H         0.929148         4.904329         2.169651
 H         1.537226         3.443175         3.102457
 H        -0.092960         3.144109        -0.434462
