19
Iteration:  4688
 O         0.274826         0.230949         0.457286
 C        -0.560493         1.264686         0.605621
 C        -2.009185         1.122575         0.230819
 C        -1.832712         1.523100         1.663047
 C        -1.319971         3.062067         1.605206
 C        -0.610117         3.467026         2.967546
 C         0.850081         3.843469         2.428882
 O         1.144411         2.895237         1.351139
 C        -0.150059         2.686710         0.692551
 H         1.208546         0.573393         0.515043
 H        -2.248470         1.889107        -0.531330
 H        -2.226764         0.068705        -0.160356
 H        -2.390567         1.215624         2.593714
 H        -1.873274         3.817817         1.106403
 H        -1.052700         4.362660         3.348632
 H        -0.874615         2.628665         3.748234
 H         0.791513         4.866553         2.034418
 H         1.683845         3.746103         3.006623
 H         0.013957         3.265093        -0.282161
