19
Iteration:  2949
 O         0.301975         0.195663         0.436316
 C        -0.578975         1.253027         0.642553
 C        -2.025141         1.161103         0.239264
 C        -1.732855         1.578881         1.569612
 C        -1.308673         3.038086         1.623549
 C        -0.561526         3.588693         2.865128
 C         0.841045         3.917737         2.329277
 O         1.070826         2.745512         1.506581
 C        -0.170205         2.672880         0.693359
 H         1.045391         0.346201         0.995739
 H        -2.428852         1.915398        -0.371182
 H        -2.592939         0.196180         0.111860
 H        -2.226183         1.151623         2.480331
 H        -2.066261         3.745856         1.206822
 H        -1.074364         4.355783         3.513148
 H        -0.451016         2.762062         3.659649
 H         0.775224         4.765253         1.626247
 H         1.727727         3.923730         2.997180
 H        -0.085627         3.339308        -0.223314
