19
Iteration:  3935charge 0 multiplicity 1
 O         0.292504         0.243976         0.576370
 C        -0.585256         1.281192         0.641649
 C        -2.007010         1.175433         0.214316
 C        -1.785201         1.491858         1.646456
 C        -1.344695         3.041534         1.618748
 C        -0.566531         3.561973         2.860893
 C         0.917355         3.819183         2.434749
 O         1.033156         2.833216         1.347626
 C        -0.180040         2.695997         0.601243
 H         1.202895         0.505132         0.768846
 H        -2.309505         1.755417        -0.622589
 H        -2.264332         0.176778        -0.085469
 H        -2.282397         0.813360         2.420145
 H        -2.102090         3.859080         1.216195
 H        -1.002141         4.441307         3.360068
 H        -0.575121         2.824961         3.755552
 H         1.071761         4.815398         2.122366
 H         1.862993         3.651054         3.029562
 H        -0.051358         3.206689        -0.327281
