19
Iteration:  1385charge 0 multiplicity 1
 O         0.358416         0.217810         0.436954
 C        -0.554657         1.234360         0.799949
 C        -2.042936         1.024585         0.331128
 C        -1.802030         1.612634         1.697068
 C        -1.282412         3.098001         1.455256
 C        -0.605189         3.815032         2.777093
 C         0.888496         3.344180         2.623644
 O         1.028711         3.167498         1.239336
 C        -0.176902         2.655176         0.603644
 H         1.103487         0.357564         0.968699
 H        -2.524733         1.587510        -0.539520
 H        -2.350889        -0.082525         0.369751
 H        -2.059654         1.192248         2.729595
 H        -2.107177         3.650956         1.080426
 H        -0.778007         4.898977         2.569964
 H        -1.200518         3.573329         3.619112
 H         1.773146         4.043807         2.824433
 H         1.068728         2.373850         3.144484
 H        -0.060366         2.937274        -0.411728
