19
Iteration:  1739
 O         0.394173         0.380082         0.596611
 C        -0.631362         1.301512         0.633451
 C        -2.009537         0.886072         0.266326
 C        -1.690975         1.611147         1.691971
 C        -1.382525         3.112715         1.556913
 C        -0.537275         3.812404         2.729383
 C         0.882353         3.336034         2.686819
 O         1.025177         2.893547         1.235789
 C        -0.283922         2.793245         0.477789
 H         1.112638         0.850680         0.960935
 H        -2.742556         1.461822        -0.431592
 H        -2.384935        -0.038392         0.523534
 H        -1.817482         1.080463         2.555376
 H        -2.158214         3.786824         1.325696
 H        -0.426697         4.851643         2.465152
 H        -0.987563         3.765972         3.720943
 H         1.723806         4.037445         2.880603
 H         1.047757         2.385455         3.271317
 H        -0.089383         3.299665        -0.473725
