19
Iteration:  3063
 O         0.347259         0.218916         0.579402
 C        -0.640469         1.168848         0.697814
 C        -1.989603         1.138156         0.191856
 C        -1.759544         1.614895         1.645388
 C        -1.348268         3.097203         1.577837
 C        -0.591779         3.541817         2.926265
 C         0.905136         3.757085         2.437634
 O         1.035910         2.856363         1.295066
 C        -0.126066         2.751411         0.611985
 H         1.178135         0.775198         0.584583
 H        -2.336627         1.799650        -0.578010
 H        -2.474966         0.174294         0.047095
 H        -2.298023         1.064169         2.344566
 H        -2.113543         3.791336         1.220932
 H        -1.021870         4.388915         3.483912
 H        -0.659125         2.722039         3.706436
 H         0.905541         4.800165         2.146315
 H         1.651867         3.403016         3.083984
 H        -0.202905         3.133993        -0.458988
