19
Iteration:  4147charge 0 multiplicity 1
 O         0.326580         0.080132         0.560520
 C        -0.583685         1.254628         0.588849
 C        -2.058890         1.174535         0.141622
 C        -1.691209         1.557848         1.567079
 C        -1.333860         3.084237         1.662592
 C        -0.674878         3.652260         2.944912
 C         0.897797         3.741432         2.427901
 O         1.055412         2.909596         1.343797
 C        -0.142330         2.711151         0.692263
 H         1.072424         0.241813        -0.064045
 H        -2.816220         1.867686        -0.264752
 H        -2.275114         0.102645         0.198983
 H        -1.714202         0.889423         2.484994
 H        -2.121172         3.731636         1.141682
 H        -0.934432         4.664488         3.359159
 H        -0.703902         3.053282         3.864357
 H         0.998580         4.884714         2.175818
 H         1.640917         3.557042         3.263698
 H        -0.065223         3.146879        -0.295510
