19
Iteration:  1871charge 0 multiplicity 1
 O         0.401000         0.281819         0.653482
 C        -0.642167         1.209064         0.707776
 C        -2.001101         1.111184         0.197065
 C        -1.783556         1.572091         1.629406
 C        -1.405403         3.050970         1.655492
 C        -0.616626         3.682010         2.756819
 C         0.930887         3.435403         2.537996
 O         1.100327         3.020624         1.170811
 C        -0.226513         2.718698         0.606627
 H         1.292548         0.810338         0.734564
 H        -2.420807         1.913896        -0.432013
 H        -2.400576         0.026177         0.225463
 H        -2.315052         1.013330         2.500024
 H        -2.134060         3.796013         1.350260
 H        -0.839041         4.694323         2.783542
 H        -0.815198         3.346073         3.767080
 H         1.450663         4.396066         2.570404
 H         1.396630         2.709604         3.258877
 H        -0.151817         3.196718        -0.409578
