19
Iteration:  2551
 O         0.343109         0.216616         0.647472
 C        -0.567835         1.325457         0.635266
 C        -2.041996         1.066986         0.329367
 C        -1.589898         1.520535         1.713834
 C        -1.365781         3.086035         1.613540
 C        -0.678128         3.731922         2.722715
 C         0.796527         3.136194         2.594714
 O         1.115614         3.253061         1.120404
 C        -0.216254         2.778991         0.564759
 H         1.224885         0.469508         1.050973
 H        -2.605727         1.801383        -0.331298
 H        -2.308567         0.118828         0.150375
 H        -1.951099         1.087572         2.631712
 H        -2.137760         3.676766         1.080901
 H        -0.496041         4.829390         2.475433
 H        -1.157987         3.901686         3.801231
 H         1.604877         3.731131         3.056325
 H         0.831858         2.063572         2.766093
 H        -0.231445         3.156572        -0.426784
