19
Iteration:  1184charge 0 multiplicity 1
 O         0.278591         0.167412         0.534332
 C        -0.522527         1.237879         0.760893
 C        -2.027726         1.071740         0.369050
 C        -1.685068         1.614122         1.712613
 C        -1.371153         3.128079         1.503956
 C        -0.673663         3.722183         2.754267
 C         0.805690         3.316330         2.579525
 O         1.081859         3.199965         1.191792
 C        -0.104017         2.701864         0.576625
 H         1.166858         0.536606         0.729477
 H        -2.324843         1.690163        -0.575384
 H        -2.209526         0.008912         0.175830
 H        -2.037040         1.298712         2.683001
 H        -2.148984         3.718431         1.049129
 H        -0.611180         4.797690         2.738951
 H        -1.163046         3.339439         3.676790
 H         1.596671         3.998983         2.877636
 H         1.052501         2.313358         3.055714
 H        -0.000196         3.017287        -0.479313
