19
Iteration:  1571
 O         0.390960         0.348031         0.544994
 C        -0.572421         1.266090         0.724451
 C        -1.980147         0.866886         0.345763
 C        -1.792886         1.686885         1.665789
 C        -1.383016         3.157953         1.554163
 C        -0.549597         3.786303         2.697669
 C         0.850115         3.143378         2.639500
 O         1.038161         3.089308         1.203741
 C        -0.230805         2.781798         0.582910
 H         1.352553         0.696891         0.773172
 H        -2.570061         1.305468        -0.545909
 H        -2.215896        -0.193928         0.584975
 H        -2.193405         1.340009         2.608653
 H        -2.151589         3.735418         1.099108
 H        -0.421559         4.809394         2.395475
 H        -1.104430         3.775080         3.568561
 H         1.554505         3.954675         3.004397
 H         1.059242         2.114343         3.080429
 H        -0.121392         3.297874        -0.439643
