19
Iteration:  2538charge 0 multiplicity 1
 O         0.337269         0.237363         0.654350
 C        -0.552234         1.267394         0.634943
 C        -1.954621         1.010573         0.295501
 C        -1.616491         1.611290         1.707241
 C        -1.380129         3.097371         1.597231
 C        -0.523338         3.832344         2.742525
 C         0.755830         3.079390         2.626845
 O         0.964010         3.213430         1.127148
 C        -0.184850         2.819753         0.519204
 H         1.159375         0.638039         0.990564
 H        -2.558950         1.678418        -0.439839
 H        -2.226116        -0.047978         0.393250
 H        -1.746577         0.990825         2.531029
 H        -2.265644         3.689147         1.367746
 H        -0.445619         4.892321         2.469678
 H        -1.035170         3.607714         3.727551
 H         1.585910         3.433596         3.163510
 H         0.589653         2.038538         2.914149
 H        -0.257663         3.357626        -0.474714
