19
Iteration:  4854
 O         0.364359         0.227183         0.626702
 C        -0.541893         1.234798         0.604451
 C        -2.042962         1.128792         0.148633
 C        -1.696784         1.600371         1.612018
 C        -1.294312         3.089207         1.699455
 C        -0.591500         3.509311         3.019365
 C         0.829083         3.672933         2.392007
 O         0.998638         2.870786         1.237722
 C        -0.213246         2.814138         0.539124
 H         1.130948         0.656274         1.039568
 H        -2.468289         1.814195        -0.562147
 H        -2.405583         0.102541        -0.025603
 H        -2.089992         0.962168         2.506496
 H        -2.089777         3.740875         1.489894
 H        -1.002403         4.434779         3.337765
 H        -0.586575         2.797896         3.883650
 H         1.109573         4.796191         2.419504
 H         1.526035         3.193361         2.949991
 H        -0.163087         3.431066        -0.420358
