19
Iteration:  4149charge 0 multiplicity 1
 O         0.330040         0.072899         0.562496
 C        -0.572072         1.234225         0.578203
 C        -2.061715         1.181430         0.146101
 C        -1.671725         1.573940         1.561388
 C        -1.349295         3.072994         1.642865
 C        -0.664240         3.657644         2.953507
 C         0.910210         3.749884         2.438771
 O         1.036612         2.914996         1.339307
 C        -0.140476         2.718162         0.714422
 H         1.035368         0.234101        -0.054104
 H        -2.822369         1.956691        -0.243541
 H        -2.283822         0.064506         0.225366
 H        -1.714293         0.900964         2.478493
 H        -2.141139         3.744359         1.108781
 H        -0.947969         4.618689         3.357853
 H        -0.732369         3.053002         3.837708
 H         0.970348         4.834198         2.129534
 H         1.612730         3.469036         3.209951
 H        -0.101077         3.147930        -0.265375
