19
Iteration:  3468
 O         0.226217         0.144437         0.556746
 C        -0.594469         1.268477         0.674487
 C        -2.026456         1.099143         0.167622
 C        -1.634360         1.627930         1.605066
 C        -1.274501         3.056495         1.588425
 C        -0.632656         3.549034         2.903310
 C         0.833570         3.745384         2.514381
 O         1.080539         2.919106         1.305560
 C        -0.149400         2.725870         0.579511
 H         1.090923         0.400125         0.889793
 H        -2.532899         1.733114        -0.588461
 H        -2.267646        -0.012329         0.273865
 H        -1.840312         1.203150         2.574184
 H        -1.934260         3.904514         1.185385
 H        -1.089519         4.421218         3.376289
 H        -0.834627         2.771998         3.664070
 H         0.888000         4.902714         2.287884
 H         1.635478         3.713631         3.271022
 H        -0.135490         3.166152        -0.493134
