19
Iteration:  2052
 O         0.423065         0.379570         0.535990
 C        -0.597071         1.279643         0.554705
 C        -1.993470         0.897878         0.333550
 C        -1.821752         1.691931         1.679819
 C        -1.400553         3.183300         1.540616
 C        -0.589797         3.738201         2.795878
 C         0.827913         3.338317         2.648472
 O         1.103729         2.889889         1.246937
 C        -0.254509         2.746502         0.531264
 H         1.306717         0.892006         0.680921
 H        -2.538788         1.306579        -0.458685
 H        -2.194830        -0.211209         0.619505
 H        -1.916407         1.174800         2.658465
 H        -2.135221         3.865490         1.090695
 H        -0.548173         4.904725         2.902106
 H        -0.820634         3.322339         3.799533
 H         1.553782         4.192979         2.812707
 H         1.080446         2.482411         3.300787
 H        -0.117820         3.347846        -0.318824
