19
Iteration:  1208charge 0 multiplicity 1
 O         0.378379         0.049802         0.508447
 C        -0.474765         1.134389         0.691624
 C        -1.930148         1.128045         0.365125
 C        -1.704437         1.684725         1.748419
 C        -1.306043         3.126564         1.548705
 C        -0.640035         3.785003         2.803031
 C         0.739382         3.279251         2.601949
 O         0.991937         3.236343         1.123276
 C        -0.188556         2.776809         0.534780
 H         0.979693         0.143857         1.352835
 H        -2.273479         1.851750        -0.511985
 H        -2.560382         0.279874         0.429443
 H        -2.129970         1.399124         2.658529
 H        -2.090754         3.686822         1.122602
 H        -0.729607         4.845531         2.816221
 H        -1.163967         3.303646         3.653499
 H         1.668251         3.722610         2.957902
 H         0.736626         2.196010         2.946793
 H        -0.151940         3.118979        -0.432905
