19
Iteration:   169charge 0 multiplicity 1
 O         0.339197         0.225282         0.556125
 C        -0.580181         1.236489         0.609053
 C        -2.002944         1.101121         0.338977
 C        -1.734719         1.633120         1.681881
 C        -1.345787         3.097463         1.615767
 C        -0.620914         3.758779         2.806913
 C         0.866436         3.507811         2.570919
 O         1.052102         2.858804         1.190334
 C        -0.189243         2.718880         0.568975
 H         1.267032         0.684403         0.737458
 H        -2.438887         1.711984        -0.444377
 H        -2.409464         0.132212         0.342575
 H        -2.199180         1.164902         2.603609
 H        -2.101609         3.850731         1.186249
 H        -0.934471         4.752407         3.022814
 H        -0.926678         3.220381         3.705142
 H         1.481720         4.478769         2.393029
 H         1.432213         2.913742         3.273296
 H         0.005105         3.191155        -0.442809
