19
Iteration:  4724
 O         0.279048         0.128869         0.349056
 C        -0.578184         1.213469         0.510016
 C        -2.013541         1.166651         0.202540
 C        -1.620359         1.491450         1.618875
 C        -1.291401         3.028048         1.642098
 C        -0.622974         3.614721         2.996166
 C         0.845462         3.929166         2.399825
 O         1.049041         2.853531         1.493916
 C        -0.178479         2.723106         0.676094
 H         0.580097        -0.112042         1.266173
 H        -2.437209         2.014539        -0.348726
 H        -2.446506         0.269732        -0.079031
 H        -2.050994         0.865031         2.558156
 H        -2.051324         3.773188         1.241931
 H        -1.117074         4.505067         3.371518
 H        -0.425060         2.980346         3.831360
 H         0.814748         4.885667         1.875424
 H         1.713764         3.951488         3.148647
 H        -0.163423         3.235868        -0.270318
