19
Iteration:   161
 O         0.273954         0.214230         0.541008
 C        -0.570917         1.270367         0.673979
 C        -1.951950         1.120544         0.304569
 C        -1.640574         1.646259         1.760161
 C        -1.322481         3.123791         1.578216
 C        -0.654222         3.698752         2.774198
 C         0.848083         3.490579         2.508880
 O         1.097719         2.895150         1.211021
 C        -0.238311         2.712915         0.561723
 H         1.155772         0.497201         1.066807
 H        -2.341136         1.845418        -0.483893
 H        -2.416005         0.086902         0.323669
 H        -2.040908         1.094202         2.583898
 H        -2.194392         3.702036         1.101360
 H        -0.894667         4.775449         2.930551
 H        -0.928622         3.082289         3.663950
 H         1.374086         4.494221         2.577655
 H         1.213980         2.713845         3.274502
 H        -0.358075         3.293894        -0.383426
