19
Iteration:   295charge 0 multiplicity 1
 O         0.169543        -0.026305         0.408568
 C        -0.523308         1.178253         0.708845
 C        -1.987457         1.264522         0.189645
 C        -1.775806         1.608329         1.613077
 C        -1.276916         3.072425         1.711127
 C        -0.547350         3.631271         2.950187
 C         0.796010         4.020615         2.296180
 O         1.080850         2.891772         1.431928
 C        -0.088171         2.583264         0.658985
 H         0.815720        -0.129461         1.077993
 H        -2.338798         2.001792        -0.583717
 H        -2.260559         0.266784        -0.006675
 H        -2.321083         0.945972         2.343077
 H        -2.171563         3.672351         1.464148
 H        -1.009444         4.408317         3.535834
 H        -0.200202         2.758834         3.487032
 H         0.823311         5.014595         1.656689
 H         1.615814         4.047610         3.051580
 H         0.024136         2.949511        -0.373814
