19
Iteration:  3454
 O         0.246995         0.176093         0.531332
 C        -0.608649         1.202749         0.613809
 C        -2.000949         1.097091         0.252922
 C        -1.822953         1.629692         1.694532
 C        -1.262321         3.121343         1.575492
 C        -0.639712         3.499514         2.922079
 C         0.804898         3.806570         2.493261
 O         1.161054         2.986102         1.308248
 C        -0.079068         2.638710         0.563314
 H         1.126616         0.586748         0.730810
 H        -2.426364         1.854723        -0.542956
 H        -2.376866         0.135057         0.108217
 H        -2.222802         0.984686         2.527189
 H        -2.087250         3.663881         1.243102
 H        -1.140216         4.392713         3.122625
 H        -0.621355         2.717721         3.648180
 H         1.081754         4.837203         2.149964
 H         1.508801         3.309927         3.264283
 H         0.084304         3.069252        -0.434133
