19
Iteration:  3957charge 0 multiplicity 1
 O         0.306037         0.182810         0.643094
 C        -0.595525         1.276075         0.591831
 C        -2.032682         1.148658         0.102812
 C        -1.624177         1.622806         1.563036
 C        -1.330711         3.063729         1.715005
 C        -0.550675         3.519605         2.899257
 C         0.781112         3.762812         2.348280
 O         1.063199         2.823088         1.324050
 C        -0.208446         2.787110         0.643470
 H         0.896698         0.274455         1.426290
 H        -2.554834         1.803562        -0.543004
 H        -2.484132         0.151808         0.088671
 H        -1.830859         0.987530         2.477864
 H        -2.219501         3.655841         1.283991
 H        -0.943679         4.398682         3.448971
 H        -0.379227         2.774063         3.782992
 H         0.975011         4.714441         2.003809
 H         1.646234         3.683000         3.060254
 H        -0.130810         3.383520        -0.237944
