19
Iteration:  1905
 O         0.320665         0.220843         0.687114
 C        -0.555475         1.309803         0.560692
 C        -2.000983         0.974074         0.254781
 C        -1.635592         1.658531         1.618406
 C        -1.393453         3.123092         1.633737
 C        -0.629824         3.627490         2.804819
 C         0.903958         3.400879         2.529972
 O         1.070135         3.029554         1.175420
 C        -0.226591         2.822899         0.531672
 H         0.982552         0.563507         1.366921
 H        -2.556217         1.547125        -0.510304
 H        -2.549022        -0.064573         0.395015
 H        -1.963416         1.152642         2.641201
 H        -2.130004         3.888850         1.509148
 H        -0.931182         4.602092         3.013275
 H        -0.944425         2.981015         3.636200
 H         1.551095         4.267451         2.602026
 H         1.291470         2.687518         3.323782
 H        -0.394026         3.466406        -0.363597
