19
Iteration:  4812charge 0 multiplicity 1
 O         0.314767         0.284544         0.422906
 C        -0.639063         1.328868         0.634495
 C        -2.086359         1.058198         0.264091
 C        -1.766043         1.533412         1.667364
 C        -1.321310         3.030097         1.605900
 C        -0.565594         3.535319         2.880651
 C         0.852098         3.801426         2.509535
 O         1.091798         2.838535         1.333401
 C        -0.104895         2.745942         0.618131
 H         1.010076         0.534193         1.093011
 H        -2.474146         1.676048        -0.478838
 H        -2.100768        -0.021251         0.063073
 H        -2.158006         0.890281         2.523658
 H        -2.039159         3.774196         1.224367
 H        -1.058877         4.428108         3.269982
 H        -0.555821         2.754299         3.588999
 H         1.108579         4.704277         2.028631
 H         1.538141         3.663636         3.406408
 H        -0.052787         3.321072        -0.351858
