19
Iteration:  3374charge 0 multiplicity 1
 O         0.288323         0.243013         0.593298
 C        -0.631549         1.237172         0.609200
 C        -2.079568         1.152610         0.167113
 C        -1.779643         1.546283         1.590412
 C        -1.310607         3.039118         1.614875
 C        -0.513185         3.536358         2.871489
 C         0.847340         3.871642         2.374550
 O         1.081492         2.841675         1.431711
 C        -0.110377         2.677757         0.621547
 H         1.155858         0.551181         0.957426
 H        -2.474233         1.926575        -0.513290
 H        -2.610595         0.138566        -0.039937
 H        -2.049833         1.075705         2.520330
 H        -2.172739         3.576886         1.212103
 H        -1.047533         4.119383         3.710402
 H        -0.260644         2.640598         3.481535
 H         1.001612         4.863286         1.865069
 H         1.609935         3.953537         3.186843
 H         0.010312         3.158720        -0.334257
