19
Iteration:  1143charge 0 multiplicity 1
 O         0.421883         0.319181         0.641826
 C        -0.636751         1.254515         0.531436
 C        -2.037209         0.961408         0.248785
 C        -1.612210         1.601362         1.687238
 C        -1.348012         3.114947         1.588087
 C        -0.605388         3.940049         2.805854
 C         0.833939         3.266139         2.587943
 O         0.983515         2.897001         1.212536
 C        -0.204391         2.795388         0.534995
 H         1.018956         0.793762         1.250446
 H        -2.502941         1.700665        -0.426826
 H        -2.529738         0.044041         0.320369
 H        -1.707113         0.968544         2.523351
 H        -2.215957         3.657822         1.241417
 H        -0.707442         4.987373         2.617024
 H        -0.827223         3.687242         3.892311
 H         1.607859         3.980090         2.882862
 H         0.914233         2.380513         3.241336
 H        -0.066821         3.232049        -0.397805
