19
Iteration:  1204
 O         0.385383         0.056023         0.505526
 C        -0.501747         1.142799         0.719088
 C        -1.905094         1.143581         0.346246
 C        -1.713030         1.692727         1.735782
 C        -1.261231         3.145443         1.567306
 C        -0.642362         3.784485         2.812464
 C         0.734758         3.273106         2.602739
 O         0.989162         3.235554         1.105886
 C        -0.184731         2.729197         0.542607
 H         1.011789         0.137799         1.168618
 H        -2.467519         1.853657        -0.408472
 H        -2.578556         0.267267         0.587958
 H        -2.167321         1.305368         2.687980
 H        -2.081924         3.679724         0.998558
 H        -0.967220         4.860109         2.802737
 H        -1.115864         3.241542         3.650159
 H         1.582113         3.798593         3.056641
 H         0.687702         2.227136         2.977529
 H        -0.057231         3.131896        -0.594809
