19
Iteration:  1931charge 0 multiplicity 1
 O         0.364702         0.268568         0.591967
 C        -0.615927         1.300166         0.681029
 C        -2.077204         1.014643         0.310878
 C        -1.733428         1.611240         1.732114
 C        -1.290362         3.067328         1.484635
 C        -0.661707         3.626418         2.812796
 C         0.909035         3.328718         2.576881
 O         1.051139         3.184309         1.189456
 C        -0.132014         2.712137         0.483520
 H         0.923089         0.516706         1.355583
 H        -2.705425         1.632255        -0.336254
 H        -2.286302         0.033417         0.211636
 H        -1.891710         1.268967         2.664742
 H        -1.955434         3.858794         1.108644
 H        -0.983207         4.766615         2.942595
 H        -1.065517         3.017599         3.684466
 H         1.609783         4.162585         2.744747
 H         1.261592         2.511683         3.228747
 H        -0.189091         3.161307        -0.464620
