19
Iteration:   140
 O         0.220374         0.145558         0.569324
 C        -0.511812         1.314828         0.672254
 C        -2.027193         1.126287         0.355982
 C        -1.623884         1.548267         1.721605
 C        -1.354958         3.070990         1.555192
 C        -0.639454         3.700347         2.738478
 C         0.868335         3.397440         2.613047
 O         1.053682         3.143714         1.161448
 C        -0.113453         2.752586         0.516010
 H         0.521912        -0.181738         1.410074
 H        -2.612131         1.920137        -0.238380
 H        -2.225183         0.040783         0.064148
 H        -1.744623         1.126638         2.693251
 H        -2.224394         3.673421         1.169398
 H        -0.838388         4.816643         2.724384
 H        -1.043282         3.257995         3.696884
 H         1.438493         4.294483         2.704008
 H         1.258440         2.458582         3.146882
 H         0.063977         3.139789        -0.507340
