19
Iteration:   130
 O         0.241946         0.092117         0.571819
 C        -0.544667         1.247884         0.568671
 C        -2.034528         1.094368         0.389654
 C        -1.679827         1.567118         1.690033
 C        -1.307018         3.044426         1.581495
 C        -0.616640         3.766872         2.763137
 C         0.863640         3.362494         2.612390
 O         1.097649         3.301385         1.168659
 C        -0.099156         2.708587         0.501769
 H         0.308401        -0.072630         1.455949
 H        -2.591433         1.797485        -0.322658
 H        -2.429467         0.013316         0.346004
 H        -1.948735         0.940178         2.493026
 H        -2.125377         3.613016         1.158599
 H        -0.714791         4.902364         2.712973
 H        -1.041788         3.423128         3.755043
 H         1.511260         4.038734         3.092869
 H         1.083399         2.438438         3.230325
 H        -0.308973         3.216205        -0.433347
