19
Iteration:  2856charge 0 multiplicity 1
 O         0.249272         0.161383         0.592673
 C        -0.563652         1.239192         0.656329
 C        -1.932565         1.083557         0.184814
 C        -1.829252         1.654169         1.569369
 C        -1.357742         3.043878         1.631274
 C        -0.525968         3.531940         2.919623
 C         0.875873         3.737231         2.449603
 O         1.086062         2.946631         1.283305
 C        -0.191669         2.770528         0.625395
 H         1.121607         0.605302         0.884000
 H        -2.530569         1.588408        -0.675359
 H        -2.178286         0.022160         0.051125
 H        -2.269489         1.189966         2.521324
 H        -2.120073         3.768950         1.324692
 H        -0.933645         4.395342         3.383937
 H        -0.583341         2.794785         3.654448
 H         1.114745         4.715052         2.181602
 H         1.575548         3.295727         3.155868
 H        -0.113950         3.263770        -0.300719
