19
Iteration:   274
 O         0.092359         0.084118         0.402219
 C        -0.596344         1.202878         0.729103
 C        -2.022569         1.074299         0.165076
 C        -1.823200         1.559135         1.687121
 C        -1.247292         3.026812         1.599349
 C        -0.556050         3.572468         2.857055
 C         0.846612         3.945737         2.380655
 O         1.224115         2.965852         1.379652
 C        -0.056893         2.694490         0.775519
 H         0.870070         0.036724         0.983233
 H        -2.402862         1.814735        -0.561572
 H        -2.407341         0.109546         0.084627
 H        -2.250920         0.980996         2.591012
 H        -1.873485         3.724290         1.102921
 H        -1.060043         4.535681         2.923497
 H        -0.650278         2.929353         3.708377
 H         0.701279         4.990828         1.967445
 H         1.671903         3.946885         3.084870
 H        -0.041485         3.309166        -0.086148
