19
Iteration:  4642
 O         0.334496         0.278950         0.666097
 C        -0.609844         1.315751         0.609012
 C        -1.951035         1.116016         0.123652
 C        -1.710289         1.583042         1.615247
 C        -1.345481         3.094800         1.618825
 C        -0.556274         3.410711         2.893863
 C         0.893222         3.643589         2.445588
 O         0.980912         2.903722         1.242378
 C        -0.199610         2.835789         0.637535
 H         0.709818         0.419702         1.580781
 H        -2.587146         1.831714        -0.485925
 H        -2.163054        -0.009606        -0.015837
 H        -1.967194         1.041877         2.428446
 H        -2.127269         3.748778         1.319304
 H        -0.907050         4.205469         3.654745
 H        -0.442941         2.442161         3.552256
 H         0.920729         4.668890         2.061389
 H         1.739954         3.392137         3.041040
 H        -0.321165         3.437755        -0.366685
