19
Iteration:  3575
 O         0.192497         0.096622         0.442666
 C        -0.543461         1.280479         0.554072
 C        -2.030482         1.163072         0.254246
 C        -1.695494         1.530928         1.594278
 C        -1.298167         3.032169         1.607256
 C        -0.647036         3.579112         2.938982
 C         0.753228         3.922441         2.456406
 O         1.171071         2.867831         1.387598
 C        -0.053071         2.730223         0.674354
 H         0.688956         0.225659         1.272120
 H        -2.573979         1.609343        -0.615654
 H        -2.344533         0.014774         0.152620
 H        -1.849313         0.945060         2.492909
 H        -1.993212         3.784595         1.295211
 H        -1.186532         4.524824         3.056205
 H        -0.676495         2.860869         3.773235
 H         0.835250         4.784308         1.884224
 H         1.523222         3.780335         3.310332
 H         0.085971         3.268293        -0.229260
