19
Iteration:  4395charge 0 multiplicity 1
 O         0.366345         0.265258         0.535296
 C        -0.654129         1.242354         0.563706
 C        -2.082589         1.117207         0.206130
 C        -1.799654         1.467153         1.631256
 C        -1.330717         3.043370         1.632271
 C        -0.581397         3.609547         2.885149
 C         0.911809         3.774889         2.437953
 O         1.111438         2.832326         1.365939
 C        -0.198780         2.733211         0.646044
 H         1.267385         0.675799         0.671840
 H        -2.409322         1.904468        -0.428068
 H        -2.271145         0.117409        -0.093341
 H        -2.016582         0.977833         2.568757
 H        -2.060113         3.843256         1.436333
 H        -1.012076         4.569729         3.117453
 H        -0.698350         2.832096         3.633264
 H         1.070680         4.801747         2.163414
 H         1.545451         3.621680         3.362452
 H        -0.086419         3.328067        -0.248173
