19
Iteration:   474
 O         0.381165         0.287157         0.573030
 C        -0.575735         1.346255         0.732597
 C        -2.051864         1.052727         0.455533
 C        -1.634727         1.639450         1.801632
 C        -1.341338         3.106465         1.445545
 C        -0.657395         3.753606         2.658021
 C         0.698243         3.027164         2.660904
 O         1.117544         3.130060         1.115311
 C        -0.110127         2.814713         0.488147
 H         1.260399         0.623875         0.851013
 H        -2.712328         1.725349        -0.044319
 H        -2.346433         0.052684         0.361950
 H        -1.829536         1.338380         2.805957
 H        -2.165185         3.715320         1.208150
 H        -0.586984         4.809394         2.528146
 H        -1.281047         3.630799         3.548081
 H         1.548723         3.524074         3.225223
 H         0.562604         1.991829         2.744730
 H        -0.197799         3.134183        -0.523963
