19
Iteration:  1429
 O         0.305789         0.290959         0.656344
 C        -0.603498         1.366466         0.614891
 C        -2.004236         1.036343         0.330860
 C        -1.589454         1.554239         1.697415
 C        -1.363864         3.074584         1.545912
 C        -0.642824         3.728922         2.732870
 C         0.877547         3.402706         2.560314
 O         0.981259         2.876362         1.284093
 C        -0.165977         2.804179         0.451610
 H         1.155769         0.729284         0.788604
 H        -2.617809         1.844857        -0.222530
 H        -2.238335         0.005164         0.126453
 H        -1.646127         1.016900         2.628930
 H        -2.063310         3.742279         1.156856
 H        -0.832750         4.818762         2.818784
 H        -0.917821         3.322710         3.670828
 H         1.470156         4.369228         2.675872
 H         1.271040         2.651559         3.241088
 H        -0.121120         3.306180        -0.505331
