19
Iteration:  1850charge 0 multiplicity 1
 O         0.458252         0.249248         0.580981
 C        -0.596452         1.201883         0.645479
 C        -2.105662         1.124517         0.291738
 C        -1.778059         1.553988         1.688392
 C        -1.293238         3.061376         1.547379
 C        -0.602370         3.756075         2.802273
 C         0.856104         3.434130         2.598731
 O         1.051532         3.071805         1.168496
 C        -0.191156         2.658373         0.592959
 H         1.274760         0.582893         1.031569
 H        -2.328103         1.850547        -0.520194
 H        -2.584819         0.049230         0.206303
 H        -2.278627         1.200386         2.688354
 H        -1.982762         3.789960         1.174205
 H        -0.787849         4.816847         2.809731
 H        -1.145329         3.360764         3.685789
 H         1.608060         4.183802         2.736826
 H         1.094805         2.499315         3.206410
 H        -0.342005         3.143238        -0.385652
