19
Iteration:  4140
 O         0.290861         0.133266         0.554659
 C        -0.605072         1.302053         0.608367
 C        -2.037495         1.137800         0.171064
 C        -1.732987         1.502530         1.616585
 C        -1.288181         3.086815         1.704382
 C        -0.654793         3.639162         2.923278
 C         0.840237         3.773167         2.447059
 O         1.129117         2.880890         1.363049
 C        -0.141610         2.709725         0.595982
 H         1.019444         0.347549        -0.022325
 H        -2.699044         1.707196        -0.590598
 H        -2.357763         0.053394         0.000417
 H        -1.942904         0.869212         2.497234
 H        -2.097379         3.756195         1.318723
 H        -0.982062         4.634093         3.133145
 H        -0.693918         2.970437         3.771413
 H         1.085253         4.780991         2.196771
 H         1.565360         3.673392         3.215516
 H        -0.026884         3.255367        -0.362984
