19
Iteration:   737charge 0 multiplicity 1
 O         0.264261         0.202513         0.591360
 C        -0.540214         1.240929         0.758604
 C        -2.056197         1.118194         0.338450
 C        -1.653300         1.651547         1.672681
 C        -1.324747         3.115033         1.494018
 C        -0.649203         3.681506         2.748056
 C         0.794224         3.196915         2.586711
 O         1.076991         3.271706         1.160926
 C        -0.072694         2.695293         0.540018
 H         1.147788         0.433979         1.101896
 H        -2.517839         1.691403        -0.335969
 H        -2.440548         0.115961         0.441842
 H        -1.958771         1.169514         2.603454
 H        -2.169591         3.807983         1.214201
 H        -0.663930         4.725953         2.729859
 H        -1.187530         3.329845         3.640033
 H         1.540593         3.814571         3.162542
 H         0.952751         2.157432         2.925569
 H         0.013450         2.882546        -0.556097
