19
Iteration:  2997
 O         0.261610         0.083675         0.511871
 C        -0.625462         1.278496         0.566638
 C        -1.993784         1.077703         0.174406
 C        -1.679987         1.566580         1.677587
 C        -1.320228         3.102998         1.653345
 C        -0.608867         3.641418         2.918108
 C         0.849286         3.737049         2.423402
 O         1.070168         2.869114         1.337846
 C        -0.126334         2.795661         0.661449
 H         1.158642         0.341390         0.893055
 H        -2.447974         1.602824        -0.676612
 H        -2.299408         0.069957         0.222516
 H        -2.179030         1.118405         2.499233
 H        -2.060704         3.719277         1.148016
 H        -0.940990         4.637210         3.173774
 H        -0.887542         3.107356         3.900389
 H         0.965976         4.833956         2.052114
 H         1.612699         3.484683         3.161070
 H        -0.016232         3.527144        -0.234878
