19
Iteration:   744
 O         0.283557         0.107141         0.577628
 C        -0.525525         1.258446         0.666566
 C        -2.075405         1.081742         0.352193
 C        -1.667051         1.617680         1.686876
 C        -1.324256         3.098400         1.548742
 C        -0.596304         3.739587         2.754415
 C         0.804944         3.206441         2.633281
 O         1.059751         3.323811         1.202652
 C        -0.113732         2.724647         0.500478
 H         1.068891         0.178449         1.139425
 H        -2.595548         1.833885        -0.408038
 H        -2.458003         0.001687         0.365109
 H        -2.193826         1.179707         2.590691
 H        -1.871166         3.954917         1.116025
 H        -0.709066         4.906148         2.521450
 H        -1.198125         3.435775         3.607194
 H         1.545527         3.869310         3.150414
 H         0.957964         2.164214         2.948026
 H         0.079871         2.963904        -0.595167
