19
Iteration:  4966
 O         0.375582         0.194614         0.397747
 C        -0.606571         1.196605         0.653005
 C        -2.057400         1.164971         0.130429
 C        -1.805905         1.562836         1.599456
 C        -1.280981         2.966061         1.735250
 C        -0.581091         3.591839         2.980726
 C         0.796699         3.892006         2.361235
 O         1.095457         2.842294         1.365625
 C        -0.133822         2.687672         0.729514
 H         1.164449         0.384895         0.964985
 H        -2.333600         1.982297        -0.524325
 H        -2.517020         0.216725         0.098136
 H        -2.249636         1.005375         2.345004
 H        -2.037016         3.662091         1.477491
 H        -1.079580         4.413630         3.551104
 H        -0.506619         2.833182         3.723924
 H         0.735870         4.973343         1.800954
 H         1.725819         3.901346         2.896628
 H        -0.257163         3.377458        -0.191204
