19
Iteration:    63
 O         0.413476         0.318377         0.723599
 C        -0.630717         1.264078         0.716396
 C        -2.085106         1.074945         0.335496
 C        -1.737077         1.621915         1.690312
 C        -1.381412         3.179765         1.475132
 C        -0.586305         3.645068         2.803090
 C         0.851919         3.198520         2.545869
 O         1.124860         3.064190         1.122039
 C        -0.224558         2.766970         0.469407
 H         1.243654         0.941014         0.897751
 H        -2.448728         1.918102        -0.401181
 H        -2.623704         0.135841         0.263810
 H        -1.956407         1.001414         2.597060
 H        -2.187623         3.852196         1.126344
 H        -0.616627         4.774657         2.921196
 H        -1.036988         3.100326         3.690779
 H         1.616079         3.834903         3.024605
 H         1.162192         2.267838         3.128035
 H        -0.094787         3.139967        -0.577487
