19
Iteration:   445
 O         0.372757         0.242354         0.613183
 C        -0.558237         1.270772         0.727746
 C        -1.915689         1.055733         0.273680
 C        -1.651183         1.690197         1.717740
 C        -1.381514         3.104951         1.602099
 C        -0.524617         3.826416         2.656196
 C         0.820948         3.112041         2.597831
 O         0.961288         3.105036         1.148584
 C        -0.261323         2.764958         0.594571
 H         1.269806         0.671667         0.954518
 H        -2.506007         1.611229        -0.566876
 H        -2.359729         0.055352         0.453538
 H        -2.174841         1.188894         2.567341
 H        -2.241017         3.791649         1.387893
 H        -0.586560         4.957941         2.474561
 H        -1.040552         3.741684         3.687343
 H         1.703369         3.501947         3.026562
 H         0.726795         1.984360         2.860160
 H        -0.324126         3.140419        -0.441496
