19
Iteration:   489charge 0 multiplicity 1
 O         0.329452         0.279714         0.578000
 C        -0.548918         1.286082         0.585776
 C        -2.037754         1.052454         0.509976
 C        -1.540388         1.713673         1.705382
 C        -1.328623         3.178927         1.467427
 C        -0.633496         3.741127         2.671941
 C         0.761465         3.103619         2.586265
 O         1.025036         3.069764         1.267013
 C        -0.218873         2.756421         0.487186
 H         1.206174         0.823780         0.849112
 H        -2.620422         1.456952        -0.409578
 H        -2.261391        -0.050550         0.715670
 H        -1.751558         1.176965         2.678719
 H        -2.157659         3.702179         0.950299
 H        -0.528617         4.895968         2.690014
 H        -1.169696         3.425835         3.652187
 H         1.509104         3.662965         3.078875
 H         0.814198         2.088942         3.166374
 H        -0.004124         3.342738        -0.431671
