19
Iteration:  1147charge 0 multiplicity 1
 O         0.383805         0.304891         0.660915
 C        -0.644593         1.272290         0.511692
 C        -2.056014         1.002751         0.275157
 C        -1.604444         1.561598         1.624514
 C        -1.342323         3.119498         1.611273
 C        -0.582321         3.892252         2.809628
 C         0.833069         3.279519         2.580449
 O         1.007181         2.929630         1.197319
 C        -0.199153         2.781905         0.585800
 H         1.099484         0.767967         1.234028
 H        -2.530698         1.543951        -0.501408
 H        -2.302121        -0.088470         0.342244
 H        -1.704060         1.024152         2.599672
 H        -2.305677         3.607795         1.216891
 H        -0.751780         4.986608         2.534069
 H        -0.985718         3.800035         3.823842
 H         1.568467         4.044648         2.871769
 H         0.906339         2.446258         3.262464
 H         0.048595         3.293959        -0.469457
