19
Iteration:   369charge 0 multiplicity 1
 O         0.315207         0.145652         0.544616
 C        -0.586369         1.216428         0.659242
 C        -2.001075         1.089848         0.233841
 C        -1.712886         1.739047         1.625216
 C        -1.332744         3.180214         1.651215
 C        -0.585164         3.568911         2.876770
 C         0.856843         3.730328         2.457563
 O         1.037474         2.841816         1.251952
 C        -0.174467         2.703022         0.611022
 H         1.095127         0.517764         1.104875
 H        -2.492706         1.506502        -0.744048
 H        -2.461887         0.171876         0.558216
 H        -2.341793         1.207592         2.354470
 H        -1.948697         3.970961         1.056319
 H        -0.949802         4.413777         3.521706
 H        -0.469730         2.663320         3.553767
 H         1.293060         4.660074         2.262043
 H         1.495427         3.289385         3.284781
 H        -0.282080         3.158083        -0.445669
