19
Iteration:  4685charge 0 multiplicity 1
 O         0.285521         0.241924         0.483935
 C        -0.572675         1.267984         0.586529
 C        -2.040101         1.105090         0.214943
 C        -1.828700         1.533152         1.677463
 C        -1.301270         3.060567         1.605860
 C        -0.591651         3.453133         2.970234
 C         0.844898         3.831626         2.431887
 O         1.130995         2.906081         1.330688
 C        -0.128761         2.680679         0.715547
 H         1.189391         0.612744         0.512375
 H        -2.299659         1.826006        -0.601437
 H        -2.252473         0.059541        -0.192847
 H        -2.328134         1.232953         2.490649
 H        -1.863149         3.816941         1.067638
 H        -1.099014         4.404097         3.416953
 H        -0.997239         2.655086         3.649221
 H         0.771457         4.866621         2.026865
 H         1.754925         3.715151         3.022588
 H         0.029378         3.343923        -0.215942
