19
Iteration:  3962charge 0 multiplicity 1
 O         0.295779         0.199608         0.644441
 C        -0.548628         1.291510         0.578924
 C        -2.087682         1.154810         0.134306
 C        -1.618481         1.584767         1.570705
 C        -1.327442         3.067671         1.693119
 C        -0.540540         3.506338         2.927169
 C         0.789558         3.770759         2.380468
 O         1.048456         2.827921         1.314338
 C        -0.179605         2.755774         0.610386
 H         0.748259         0.222653         1.498053
 H        -2.421679         1.742920        -0.799781
 H        -2.433170         0.118369         0.242621
 H        -1.978696         0.908523         2.309191
 H        -2.107453         3.792760         1.407760
 H        -0.863004         4.403635         3.474892
 H        -0.515930         2.855460         3.754708
 H         0.752835         4.913227         1.964575
 H         1.696720         3.688293         3.006167
 H        -0.081495         3.423554        -0.307530
