19
Iteration:  4643charge 0 multiplicity 1
 O         0.336644         0.276183         0.666258
 C        -0.611536         1.315328         0.595489
 C        -1.955013         1.110665         0.129122
 C        -1.710475         1.591729         1.621708
 C        -1.353833         3.095479         1.610388
 C        -0.556743         3.415245         2.903292
 C         0.908513         3.647383         2.452844
 O         0.977863         2.901299         1.248976
 C        -0.195627         2.836064         0.623192
 H         0.724197         0.414045         1.575175
 H        -2.553207         1.841648        -0.477343
 H        -2.177717        -0.023440        -0.044085
 H        -1.986932         1.009951         2.433588
 H        -2.156180         3.731173         1.340509
 H        -0.901070         4.181480         3.633249
 H        -0.436724         2.432931         3.527028
 H         0.914513         4.678539         2.080838
 H         1.724896         3.428538         3.040634
 H        -0.337558         3.421044        -0.355772
