19
Iteration:  4385charge 0 multiplicity 1
 O         0.309028         0.286645         0.523153
 C        -0.592602         1.313692         0.589310
 C        -2.041245         1.094815         0.186407
 C        -1.743599         1.528561         1.659450
 C        -1.402060         3.001855         1.614820
 C        -0.527501         3.589049         2.876927
 C         0.875620         3.797272         2.470261
 O         1.081881         2.815389         1.355199
 C        -0.162332         2.733624         0.630675
 H         0.991511         0.680105         1.172541
 H        -2.553007         1.737708        -0.472234
 H        -2.257747         0.085472        -0.037587
 H        -2.160313         0.855465         2.386915
 H        -2.191965         3.601731         1.144694
 H        -0.950211         4.482255         3.398749
 H        -0.493039         2.901273         3.733730
 H         1.151453         4.732222         2.032629
 H         1.658883         3.403657         3.171230
 H        -0.176031         3.273887        -0.285474
