19
Iteration:  2278
 O         0.265839         0.111507         0.496687
 C        -0.528499         1.259667         0.621876
 C        -2.051878         1.008851         0.462227
 C        -1.588752         1.647617         1.733017
 C        -1.304307         3.077371         1.469218
 C        -0.628665         3.759893         2.695583
 C         0.726445         3.150362         2.667160
 O         1.038695         3.332513         1.222972
 C        -0.089477         2.828253         0.556223
 H         1.136515         0.451532         0.936045
 H        -2.661589         1.626831        -0.180751
 H        -2.175177        -0.212126         0.313916
 H        -1.493247         1.263027         2.821425
 H        -2.171781         3.624803         0.993840
 H        -0.603883         4.803955         2.479555
 H        -1.202127         3.489907         3.641948
 H         1.511142         3.699840         3.199844
 H         0.737039         2.081792         2.882641
 H        -0.218539         3.390558        -0.438857
