19
Iteration:   976charge 0 multiplicity 1
 O         0.355000         0.316646         0.712846
 C        -0.609624         1.319012         0.651645
 C        -2.029760         1.109567         0.255430
 C        -1.656751         1.599264         1.707402
 C        -1.328635         3.098351         1.505482
 C        -0.640211         3.635995         2.773686
 C         0.832977         3.346920         2.605833
 O         1.083667         2.964394         1.149619
 C        -0.213787         2.803468         0.506646
 H         1.138982         0.543895         1.253229
 H        -2.596544         1.842939        -0.512528
 H        -2.338393         0.038506         0.215369
 H        -1.913970         1.166578         2.677727
 H        -2.214533         3.675880         1.253260
 H        -0.774445         4.742617         2.842975
 H        -1.004788         2.989287         3.637962
 H         1.521829         4.213630         2.781491
 H         1.206616         2.466446         3.140364
 H        -0.142814         2.975787        -0.533592
