19
Iteration:  3545charge 0 multiplicity 1
 O         0.304641         0.169624         0.412511
 C        -0.552155         1.237793         0.705717
 C        -2.056535         1.168229         0.214227
 C        -1.729149         1.595687         1.622503
 C        -1.320480         3.084386         1.529525
 C        -0.587573         3.551870         2.884254
 C         0.820213         3.915098         2.386471
 O         1.015437         2.788690         1.463870
 C        -0.112170         2.652527         0.736536
 H         1.219700         0.498261         0.673858
 H        -2.293803         1.819552        -0.633508
 H        -2.322743         0.053131         0.296085
 H        -2.148352         0.978187         2.382791
 H        -2.040787         3.893139         1.326668
 H        -1.066334         4.454533         3.246726
 H        -0.397428         2.699777         3.527972
 H         1.048575         4.908613         1.855608
 H         1.458570         3.827744         3.270359
 H         0.020698         3.153814        -0.282347
