19
Iteration:  1584charge 0 multiplicity 1
 O         0.513984         0.329335         0.596853
 C        -0.633950         1.267249         0.683845
 C        -2.035266         0.963278         0.338702
 C        -1.820922         1.675983         1.707941
 C        -1.324428         3.143860         1.513723
 C        -0.559856         3.741874         2.735359
 C         0.813540         3.225526         2.618831
 O         1.013110         3.052955         1.201791
 C        -0.214487         2.711601         0.541401
 H         1.126779         1.046923         0.394631
 H        -2.635471         1.416568        -0.475545
 H        -2.154595        -0.261657         0.354038
 H        -2.458074         1.302266         2.598898
 H        -1.949085         3.937214         1.289529
 H        -0.487063         4.828669         2.512168
 H        -0.836797         3.659915         3.790642
 H         1.691515         3.912546         2.952524
 H         0.964804         2.356407         3.270389
 H        -0.239637         3.032627        -0.510878
