19
Iteration:  3309
 O         0.182995         0.144924         0.599590
 C        -0.585095         1.240264         0.542485
 C        -2.068033         1.112712         0.184333
 C        -1.658928         1.557868         1.592776
 C        -1.268136         2.956861         1.595304
 C        -0.575737         3.592081         2.834928
 C         0.869817         3.807336         2.477851
 O         1.079025         2.970920         1.366308
 C        -0.143774         2.728707         0.675104
 H         0.970085         0.503019         1.030400
 H        -2.437436         1.963544        -0.401701
 H        -2.542422         0.063881        -0.022411
 H        -1.683452         0.953908         2.469849
 H        -2.081789         3.599922         1.353146
 H        -1.134213         4.526734         3.043009
 H        -0.675805         2.827118         3.572053
 H         1.096275         4.921637         2.269226
 H         1.669407         3.529855         3.267183
 H        -0.067450         3.396135        -0.234870
