19
Iteration:  3429charge 0 multiplicity 1
 O         0.333022         0.147663         0.488193
 C        -0.571051         1.204515         0.755933
 C        -2.033405         1.141486         0.143518
 C        -1.792419         1.622178         1.621821
 C        -1.298440         3.136560         1.605562
 C        -0.589768         3.505910         2.850545
 C         0.907949         3.794171         2.460035
 O         1.082547         2.937241         1.317815
 C        -0.214344         2.705264         0.675726
 H         1.027624         0.199816         1.220454
 H        -2.560173         1.792590        -0.541837
 H        -2.354866         0.070543         0.173889
 H        -2.241659         1.138668         2.498764
 H        -2.211742         3.608615         1.288869
 H        -1.175815         4.430680         3.181513
 H        -0.550109         2.656097         3.539780
 H         1.176882         4.783736         2.078627
 H         1.668207         3.584836         3.214863
 H        -0.176968         3.149813        -0.277702
