19
Iteration:   711charge 0 multiplicity 1
 O         0.372535         0.307287         0.724663
 C        -0.500472         1.319357         0.681216
 C        -1.928483         1.070143         0.352498
 C        -1.755345         1.686690         1.669067
 C        -1.391368         3.185485         1.521830
 C        -0.604673         3.641856         2.757242
 C         0.830386         3.153549         2.553420
 O         1.038612         2.957464         1.115020
 C        -0.251457         2.837181         0.511192
 H         1.332103         0.756479         0.838194
 H        -2.559387         1.706816        -0.466755
 H        -2.215792        -0.002599         0.271824
 H        -2.230686         1.265528         2.591438
 H        -2.086689         4.081674         1.380497
 H        -0.710575         4.831322         2.931587
 H        -1.152911         3.246543         3.626083
 H         1.577742         3.880256         2.957259
 H         1.040248         2.211172         3.087277
 H        -0.204094         3.155178        -0.580202
