19
Iteration:  4447
 O         0.220243         0.123443         0.531498
 C        -0.571396         1.300638         0.624859
 C        -2.036207         1.131618         0.212665
 C        -1.596332         1.506572         1.579760
 C        -1.343416         2.976160         1.573986
 C        -0.619836         3.571007         2.892345
 C         0.832463         3.847801         2.465226
 O         1.065575         2.899406         1.401094
 C        -0.060924         2.794626         0.707915
 H         0.371798         0.062546        -0.457652
 H        -2.656000         1.810173        -0.530087
 H        -2.268332         0.057489         0.192969
 H        -1.708714         0.936980         2.500561
 H        -2.125120         3.695750         1.168950
 H        -1.116112         4.468519         3.115608
 H        -0.668608         2.878475         3.775740
 H         1.007772         4.928150         2.194710
 H         1.558681         3.793671         3.265914
 H        -0.067911         3.550157        -0.186942
