19
Iteration:   276
 O         0.091059         0.084262         0.396196
 C        -0.606306         1.185666         0.728106
 C        -1.994547         1.085495         0.157179
 C        -1.811908         1.561488         1.688669
 C        -1.282147         3.025439         1.613920
 C        -0.558248         3.575413         2.866780
 C         0.856188         3.964645         2.363794
 O         1.232793         2.958296         1.380896
 C        -0.059907         2.694409         0.773904
 H         0.779163        -0.006042         0.961243
 H        -2.310778         1.781433        -0.554418
 H        -2.422184         0.116500         0.113111
 H        -2.315697         1.035178         2.597262
 H        -1.821452         3.722515         1.097020
 H        -1.120980         4.512575         3.037858
 H        -0.632806         2.934507         3.726529
 H         0.723717         4.921531         1.965496
 H         1.626378         3.989347         3.045594
 H        -0.052053         3.288901        -0.097393
