19
Iteration:  1332
 O         0.310876         0.196695         0.687214
 C        -0.554787         1.304066         0.506423
 C        -1.965328         0.965451         0.301628
 C        -1.586999         1.619802         1.709864
 C        -1.297136         3.190056         1.521489
 C        -0.549604         3.805210         2.745449
 C         0.737673         3.136478         2.638073
 O         0.990827         3.162604         1.204098
 C        -0.247779         2.792770         0.556847
 H         1.102409         0.563024         0.983718
 H        -2.670541         1.491717        -0.315681
 H        -2.258979        -0.081799         0.277725
 H        -1.740995         1.012536         2.635609
 H        -2.224445         3.702467         1.162852
 H        -0.419787         4.910018         2.478451
 H        -1.101469         3.755243         3.670733
 H         1.535453         3.801003         3.088999
 H         0.887251         2.084644         2.974529
 H        -0.219594         3.351123        -0.344561
