19
Iteration:   811
 O         0.391886         0.222232         0.492334
 C        -0.574909         1.202072         0.669390
 C        -2.173690         1.119893         0.329454
 C        -1.665017         1.645342         1.701877
 C        -1.309938         3.113725         1.528469
 C        -0.695639         3.753576         2.684167
 C         0.874405         3.419048         2.622203
 O         1.114423         2.961841         1.298111
 C        -0.151653         2.657415         0.604365
 H         1.293609         0.714969         0.703856
 H        -2.548614         1.958498        -0.347266
 H        -2.770153         0.158293         0.340196
 H        -2.048044         1.060312         2.539240
 H        -2.123177         3.629008         0.989353
 H        -0.706572         4.911880         2.523289
 H        -1.022501         3.469631         3.691293
 H         1.489045         4.370540         2.827490
 H         1.121738         2.720850         3.429207
 H        -0.273549         3.218739        -0.391571
