19
Iteration:  1837
 O         0.361271         0.222993         0.539469
 C        -0.568273         1.226004         0.718469
 C        -1.981976         1.069920         0.302003
 C        -1.656554         1.644195         1.675859
 C        -1.367618         3.136987         1.596867
 C        -0.634885         3.766112         2.752914
 C         0.836217         3.315964         2.589439
 O         1.019121         3.077526         1.198286
 C        -0.189857         2.705084         0.536998
 H         1.055195         0.577526         1.103687
 H        -2.724493         1.695042        -0.296860
 H        -2.312835         0.053560         0.274667
 H        -2.008303         1.019625         2.468053
 H        -2.200458         3.671653         1.178092
 H        -0.721428         4.789036         2.685698
 H        -0.873406         3.442625         3.712119
 H         1.424454         4.205747         2.911705
 H         1.162938         2.495443         3.266260
 H         0.018115         2.971804        -0.550705
