19
Iteration:  3772charge 0 multiplicity 1
 O         0.196097         0.137389         0.566930
 C        -0.579287         1.241531         0.564537
 C        -2.109447         1.100985         0.211298
 C        -1.647785         1.547441         1.569437
 C        -1.323064         3.086570         1.618837
 C        -0.584188         3.505178         2.877656
 C         0.850317         3.849993         2.441830
 O         1.027616         2.940065         1.406413
 C        -0.027028         2.757517         0.572195
 H         0.880236         0.436858         1.223926
 H        -2.538356         1.685591        -0.547989
 H        -2.198653         0.078703        -0.082511
 H        -1.749965         0.946323         2.522047
 H        -2.159217         3.728588         1.409427
 H        -0.984753         4.223602         3.560024
 H        -0.444994         2.759926         3.664849
 H         0.958336         4.938131         2.248423
 H         1.688962         3.739279         3.241595
 H         0.157593         3.245310        -0.452161
