19
Iteration:   694
 O         0.467953         0.407010         0.778337
 C        -0.681497         1.287261         0.625466
 C        -2.060437         0.954131         0.183680
 C        -1.745636         1.750242         1.599866
 C        -1.377671         3.169445         1.605882
 C        -0.509305         3.727243         2.805182
 C         0.881034         3.123808         2.577640
 O         1.007617         2.960483         1.167874
 C        -0.254391         2.764568         0.515132
 H         1.150074         1.129760         1.037315
 H        -2.438047         1.266451        -0.725673
 H        -2.325592        -0.053703         0.540264
 H        -1.997264         1.164364         2.495206
 H        -2.111976         3.800198         1.101667
 H        -0.475564         4.738227         2.669393
 H        -0.832259         3.482370         3.824786
 H         1.698322         3.837922         2.868900
 H         1.083700         2.194685         3.132972
 H        -0.238431         3.342144        -0.406420
