19
Iteration:   919charge 0 multiplicity 1
 O         0.300883         0.154460         0.603774
 C        -0.476081         1.306046         0.736197
 C        -1.848767         1.078584         0.305106
 C        -1.787178         1.684286         1.761928
 C        -1.414814         3.148107         1.560742
 C        -0.591541         3.769674         2.719386
 C         0.778970         3.099985         2.545343
 O         1.015374         3.179247         1.164235
 C        -0.210697         2.813394         0.574153
 H         1.333479         0.241726         0.736834
 H        -2.188340         1.509291        -0.800497
 H        -2.041153        -0.011556         0.346745
 H        -2.042576         1.212818         2.666324
 H        -2.249627         3.660410         1.056265
 H        -0.324597         4.899770         2.579329
 H        -0.901708         3.733903         3.775562
 H         1.563304         3.682921         3.055118
 H         0.788522         2.085855         2.963453
 H        -0.252454         2.953404        -0.467802
