19
Iteration:   563
 O         0.352035         0.157495         0.476723
 C        -0.571801         1.179841         0.621245
 C        -2.048459         1.219924         0.283005
 C        -1.579934         1.526614         1.758216
 C        -1.320621         3.063672         1.606594
 C        -0.634130         3.922659         2.709033
 C         0.784053         3.443404         2.569865
 O         1.082664         2.935511         1.255705
 C        -0.205155         2.688390         0.650206
 H         1.227373         0.663719         0.836679
 H        -2.361357         1.931422        -0.502125
 H        -2.817840         0.409863         0.334384
 H        -2.145400         0.932671         2.553402
 H        -2.180493         3.471264         1.150913
 H        -0.802707         4.973886         2.666177
 H        -1.000950         3.604866         3.722135
 H         1.512966         4.265896         2.782263
 H         0.894728         2.640078         3.294415
 H        -0.212464         3.174582        -0.306223
