19
Iteration:  4870
 O         0.361719         0.278469         0.572180
 C        -0.638779         1.259583         0.660192
 C        -1.976445         1.140145         0.190400
 C        -1.807114         1.571950         1.611327
 C        -1.394094         3.054778         1.639401
 C        -0.524150         3.467296         2.847944
 C         0.951290         3.683467         2.506471
 O         1.063186         2.966116         1.225673
 C        -0.234469         2.697838         0.665476
 H         1.172641         0.648422         0.934662
 H        -2.395352         1.821724        -0.610223
 H        -2.366387         0.133166         0.202600
 H        -2.199589         0.987132         2.374231
 H        -2.213986         3.764005         1.188272
 H        -0.997751         4.357711         3.392549
 H        -0.671740         2.709356         3.608094
 H         1.031694         4.697478         2.252662
 H         1.728142         3.425767         3.403764
 H        -0.249790         3.136566        -0.336117
