19
Iteration:  1550
 O         0.381702         0.251775         0.591851
 C        -0.545786         1.349400         0.625682
 C        -1.974869         1.009762         0.384710
 C        -1.605396         1.637447         1.762775
 C        -1.371007         3.139239         1.556690
 C        -0.635242         3.827471         2.728900
 C         0.712311         3.119725         2.561512
 O         1.053108         3.081282         1.165957
 C        -0.199695         2.800577         0.491258
 H         0.986832         0.304898         1.297020
 H        -2.697404         1.601098        -0.261635
 H        -1.923199        -0.105885         0.340095
 H        -1.794249         1.098674         2.681273
 H        -2.182760         3.701698         1.181960
 H        -0.650832         4.912815         2.616366
 H        -0.993091         3.550776         3.686616
 H         1.548345         3.632806         3.084757
 H         0.456820         2.205011         3.055695
 H        -0.118382         3.273038        -0.520611
