19
Iteration:  4436
 O         0.266003         0.119285         0.489130
 C        -0.530688         1.300438         0.624495
 C        -1.961931         1.118869         0.205875
 C        -1.704069         1.547140         1.686754
 C        -1.317603         3.059630         1.642699
 C        -0.671374         3.591825         2.833318
 C         0.881943         3.815975         2.455073
 O         1.064403         2.892794         1.450102
 C        -0.174474         2.769740         0.627321
 H         0.741539         0.060871        -0.360552
 H        -2.562664         1.983559        -0.302428
 H        -2.307591         0.085964        -0.022261
 H        -1.757880         0.848096         2.523681
 H        -2.147123         3.715175         1.212324
 H        -1.169568         4.427602         3.255456
 H        -0.700507         2.780693         3.596206
 H         1.054191         4.828616         2.020560
 H         1.582900         3.444190         3.205100
 H        -0.129986         3.282054        -0.417485
