19
Iteration:   251charge 0 multiplicity 1
 O         0.183784         0.085380         0.522593
 C        -0.607464         1.196111         0.551497
 C        -2.090575         1.162105         0.271035
 C        -1.603050         1.580343         1.680354
 C        -1.332600         3.058715         1.579026
 C        -0.638488         3.665929         2.900736
 C         0.873929         3.866356         2.467782
 O         1.123841         2.892282         1.376061
 C        -0.081444         2.665852         0.534082
 H         1.033243         0.415941         0.916496
 H        -2.628196         1.873204        -0.427044
 H        -2.470300         0.143630         0.289021
 H        -2.013205         1.113523         2.580502
 H        -2.066802         3.721453         1.092481
 H        -1.225007         4.515413         3.280282
 H        -0.537375         2.827837         3.594134
 H         1.177758         4.932576         2.250784
 H         1.530821         3.438775         3.284119
 H         0.181833         3.118590        -0.421399
