19
Iteration:  2744charge 0 multiplicity 1
 O         0.116464         0.036238         0.524526
 C        -0.536939         1.259455         0.637536
 C        -1.958408         1.176991         0.201193
 C        -1.655337         1.514592         1.602386
 C        -1.302366         3.040950         1.674812
 C        -0.597408         3.525395         2.864186
 C         0.796127         3.899008         2.397704
 O         1.095351         2.966521         1.361789
 C        -0.095222         2.764571         0.634254
 H         0.862175        -0.039260         1.136262
 H        -2.346685         2.013593        -0.428083
 H        -2.392377         0.176615        -0.044399
 H        -1.980131         0.729957         2.387191
 H        -2.048327         3.794085         1.333986
 H        -0.974207         4.385700         3.388972
 H        -0.495144         2.753869         3.580289
 H         0.832984         5.007297         2.046002
 H         1.565971         3.777103         3.210878
 H        -0.071396         3.275751        -0.304266
