19
Iteration:   120charge 0 multiplicity 1
 O         0.271119         0.043584         0.572162
 C        -0.632284         1.128468         0.598987
 C        -2.077033         1.062971         0.272906
 C        -1.623155         1.591219         1.703068
 C        -1.249027         3.058445         1.588884
 C        -0.585824         3.786478         2.770651
 C         0.841695         3.336556         2.601542
 O         1.100789         3.384320         1.180917
 C        -0.160794         2.799887         0.604007
 H         0.505561        -0.146725         1.423088
 H        -2.642474         1.622131        -0.516376
 H        -2.429282        -0.013308         0.470499
 H        -1.998606         1.093585         2.554360
 H        -1.996945         3.677869         1.209463
 H        -0.674659         4.898434         2.542746
 H        -1.034548         3.636922         3.780917
 H         1.611397         3.868940         3.056345
 H         0.838719         2.250451         2.775208
 H        -0.136583         3.206216        -0.399481
