19
Iteration:  2304
 O         0.374822         0.262188         0.487297
 C        -0.565878         1.272282         0.644411
 C        -1.996129         0.981609         0.359288
 C        -1.660458         1.591199         1.754593
 C        -1.423695         3.149434         1.604537
 C        -0.587507         3.846738         2.739145
 C         0.765877         3.237286         2.597832
 O         1.040967         3.026412         1.215694
 C        -0.157821         2.804076         0.531688
 H         1.113934         0.589625         1.120702
 H        -2.513058         1.529483        -0.575811
 H        -2.144336        -0.038052         0.390533
 H        -1.982335         1.037222         2.583998
 H        -2.310789         3.693797         1.289315
 H        -0.553384         4.924178         2.526026
 H        -0.949959         3.591963         3.691537
 H         1.539432         3.982197         2.911035
 H         0.874823         2.319824         3.174341
 H        -0.069710         3.262254        -0.509567
