19
Iteration:  4533
 O         0.311175         0.136295         0.629376
 C        -0.604221         1.203473         0.529564
 C        -2.050517         1.192883         0.075269
 C        -1.726124         1.513942         1.605080
 C        -1.261533         3.015085         1.695510
 C        -0.541674         3.486953         3.005170
 C         0.798178         3.930949         2.414413
 O         1.106087         2.961041         1.421638
 C        -0.165461         2.709266         0.625115
 H         0.554903        -0.188220        -0.261129
 H        -2.667091         1.928912        -0.626828
 H        -2.546317         0.215162         0.028582
 H        -2.325755         0.957894         2.253901
 H        -2.033489         3.701326         1.332521
 H        -1.038579         4.401292         3.323641
 H        -0.253724         2.611191         3.663111
 H         0.847827         4.932089         1.870200
 H         1.640748         3.964397         3.047985
 H        -0.082154         3.379587        -0.201309
