19
Iteration:  3673
 O         0.306066         0.248279         0.652972
 C        -0.566921         1.319212         0.544333
 C        -2.013743         1.049245         0.208739
 C        -1.683943         1.656645         1.633148
 C        -1.349460         3.112827         1.564072
 C        -0.563935         3.424027         2.863315
 C         0.872452         3.792907         2.447165
 O         1.027031         2.768991         1.362311
 C        -0.209746         2.825487         0.583898
 H         0.931150         0.418746         1.402096
 H        -2.400027         1.591161        -0.604285
 H        -2.387995         0.054343        -0.043267
 H        -2.117668         1.090034         2.398291
 H        -2.063008         3.862757         1.314196
 H        -0.997757         4.219312         3.457575
 H        -0.488138         2.451936         3.428473
 H         0.811785         4.806272         1.992219
 H         1.754098         3.697731         3.216578
 H        -0.039740         3.459393        -0.307440
