19
Iteration:   807
 O         0.370628         0.204053         0.495436
 C        -0.565366         1.239174         0.664512
 C        -2.140686         1.146105         0.319952
 C        -1.661006         1.603420         1.704712
 C        -1.303295         3.106499         1.559843
 C        -0.694612         3.749684         2.653697
 C         0.868738         3.431595         2.623017
 O         1.107345         2.979625         1.273855
 C        -0.179087         2.657710         0.637533
 H         1.229438         0.576583         0.736127
 H        -2.479403         2.055736        -0.349240
 H        -2.764066         0.192379         0.323275
 H        -1.908638         1.045945         2.666259
 H        -2.042630         3.625112         0.929876
 H        -0.750858         4.871760         2.500632
 H        -1.105778         3.485417         3.633619
 H         1.482368         4.279180         2.830598
 H         1.097018         2.702905         3.427295
 H        -0.147630         3.108490        -0.335718
