19
Iteration:  4909charge 0 multiplicity 1
 O         0.309441         0.164664         0.532921
 C        -0.585969         1.258061         0.589890
 C        -1.996592         1.116100         0.247666
 C        -1.720997         1.680485         1.606649
 C        -1.317129         3.110394         1.596916
 C        -0.570289         3.380768         2.966283
 C         0.813301         3.738581         2.515856
 O         1.064396         2.990705         1.250265
 C        -0.183722         2.721756         0.609566
 H         1.101100         0.449809         1.029617
 H        -2.408242         1.556570        -0.629922
 H        -2.353058         0.053822         0.389363
 H        -2.144381         1.049888         2.441871
 H        -1.995912         3.894177         1.389548
 H        -0.869661         4.322412         3.376538
 H        -0.705362         2.475003         3.605724
 H         0.815109         4.943499         2.312495
 H         1.687905         3.513028         2.961147
 H        -0.222134         3.277234        -0.371474
