19
Iteration:   872
 O         0.376361         0.321847         0.700681
 C        -0.611474         1.295345         0.549332
 C        -2.056300         1.039653         0.338858
 C        -1.651831         1.649661         1.661965
 C        -1.333746         3.138690         1.548463
 C        -0.618165         3.781990         2.726757
 C         0.812169         3.237826         2.638645
 O         1.053604         2.949299         1.205966
 C        -0.177143         2.749131         0.470791
 H         1.192565         0.770902         1.076389
 H        -2.668594         1.720358        -0.273637
 H        -2.294478        -0.063823         0.332836
 H        -1.678289         0.951862         2.566482
 H        -2.155133         3.839826         1.259864
 H        -0.708101         4.865346         2.625578
 H        -1.075374         3.544014         3.679657
 H         1.608840         3.887420         2.957694
 H         0.948434         2.268523         3.181330
 H        -0.260641         3.269857        -0.501493
