19
Iteration:  1367charge 0 multiplicity 1
 O         0.303056         0.167634         0.536726
 C        -0.521991         1.203033         0.713440
 C        -1.962860         1.149425         0.360595
 C        -1.643889         1.605347         1.799396
 C        -1.383692         3.083619         1.598023
 C        -0.673465         3.736021         2.630074
 C         0.764098         3.260585         2.604608
 O         1.080677         3.192613         1.164045
 C        -0.136162         2.731989         0.556069
 H         1.169676         0.382776         0.807709
 H        -2.430539         1.910843        -0.231641
 H        -2.261256         0.198226         0.188543
 H        -2.109188         1.127453         2.584254
 H        -2.231319         3.628039         1.013528
 H        -0.531701         4.849711         2.471279
 H        -1.021635         3.592279         3.686728
 H         1.351384         3.996925         3.152823
 H         0.866812         2.247113         3.066394
 H        -0.094886         3.163641        -0.468196
