19
Iteration:   710
 O         0.378281         0.315728         0.730145
 C        -0.504098         1.315912         0.675396
 C        -1.928192         1.062381         0.351185
 C        -1.757485         1.686395         1.652899
 C        -1.390575         3.193510         1.528588
 C        -0.598731         3.642604         2.759502
 C         0.834847         3.156877         2.560580
 O         1.032609         2.950440         1.113074
 C        -0.252620         2.835437         0.509123
 H         1.333860         0.765944         0.842159
 H        -2.592587         1.699243        -0.488922
 H        -2.237702         0.004209         0.310694
 H        -2.229920         1.264977         2.545909
 H        -2.102929         4.060960         1.436092
 H        -0.680576         4.831304         2.919093
 H        -1.155674         3.277730         3.651587
 H         1.564410         3.867684         2.935505
 H         1.042009         2.207519         3.093549
 H        -0.201162         3.143960        -0.555086
