19
Iteration:  2263charge 0 multiplicity 1
 O         0.274455         0.048290         0.512528
 C        -0.487106         1.297084         0.662547
 C        -1.987478         1.084178         0.466545
 C        -1.529580         1.587070         1.789187
 C        -1.374676         3.158682         1.520137
 C        -0.759928         3.699440         2.684674
 C         0.747307         3.164317         2.562350
 O         1.084832         3.300338         1.240408
 C        -0.129277         2.889573         0.448215
 H         1.190724         0.111579         0.714613
 H        -2.590186         1.742114        -0.150248
 H        -2.294865         0.111673         0.556488
 H        -1.933889         1.086847         2.639693
 H        -2.278489         3.684197         1.155686
 H        -0.561219         4.848769         2.724381
 H        -1.207231         3.409018         3.668313
 H         1.394164         3.719297         3.220226
 H         0.803421         2.083866         2.948715
 H         0.129381         3.169455        -0.502687
