19
Iteration:  1944
 O         0.314001         0.236249         0.555549
 C        -0.546676         1.242994         0.708678
 C        -1.963823         1.041110         0.344970
 C        -1.705309         1.622948         1.714888
 C        -1.331379         3.127522         1.556749
 C        -0.612259         3.666769         2.730041
 C         0.827273         3.311740         2.578752
 O         1.046122         3.195547         1.137348
 C        -0.194392         2.724835         0.600228
 H         1.228469         0.365097         0.956264
 H        -2.313256         1.726898        -0.393208
 H        -2.379523         0.043668         0.282319
 H        -2.146577         1.187012         2.593201
 H        -2.226767         3.692352         1.177986
 H        -0.780811         4.805016         2.892546
 H        -1.052103         3.178911         3.626097
 H         1.547854         3.996411         3.082332
 H         0.958004         2.318550         2.968738
 H        -0.127296         3.029892        -0.457420
