19
Iteration:  4014
 O         0.223958         0.066056         0.553362
 C        -0.565615         1.204679         0.685879
 C        -1.926879         1.163523         0.159745
 C        -1.814584         1.665932         1.661607
 C        -1.314933         3.049506         1.583798
 C        -0.598164         3.427461         2.973510
 C         0.837291         3.906742         2.411277
 O         1.121066         2.987047         1.329865
 C        -0.138153         2.676363         0.595403
 H         1.148875         0.419307         0.536379
 H        -2.313309         1.917009        -0.466048
 H        -2.393781         0.199366         0.025812
 H        -2.394316         1.237927         2.436415
 H        -2.096019         3.871738         1.252341
 H        -1.155481         4.205538         3.589196
 H        -0.399314         2.526968         3.613562
 H         0.665949         4.846521         2.042430
 H         1.792531         3.788227         3.005234
 H         0.026657         3.096802        -0.384303
