19
Iteration:  2251
 O         0.230321         0.121098         0.517812
 C        -0.453631         1.283662         0.713127
 C        -1.912382         1.094379         0.387698
 C        -1.510140         1.664355         1.716521
 C        -1.385315         3.112166         1.523169
 C        -0.710733         3.761407         2.808652
 C         0.741145         3.203878         2.632925
 O         1.064289         3.228711         1.154214
 C        -0.172968         2.735740         0.489740
 H         1.207012         0.304147         0.782134
 H        -2.548390         1.749642        -0.282590
 H        -2.229762         0.158135         0.403489
 H        -1.791310         1.187942         2.602353
 H        -2.304131         3.560732         1.137084
 H        -0.874214         4.908546         2.780436
 H        -1.250406         3.358742         3.664246
 H         1.553770         3.787602         3.089992
 H         0.776646         2.119018         2.937406
 H        -0.251517         3.108572        -0.501591
