19
Iteration:  3743charge 0 multiplicity 1
 O         0.250625         0.156947         0.538994
 C        -0.576575         1.209502         0.657417
 C        -1.924016         1.167030         0.218874
 C        -1.729129         1.567909         1.623882
 C        -1.309628         3.116043         1.641447
 C        -0.650244         3.518079         2.932269
 C         0.839488         3.740426         2.434819
 O         1.090135         2.960147         1.242641
 C        -0.122988         2.686546         0.659546
 H         0.961212         0.342439         1.213615
 H        -2.397246         1.791256        -0.683928
 H        -2.215551         0.178958        -0.155325
 H        -2.458454         1.215304         2.414836
 H        -2.020321         3.860705         1.236826
 H        -0.991655         4.526539         3.339327
 H        -0.680990         2.716913         3.683025
 H         0.791678         4.808278         2.179888
 H         1.611879         3.577970         3.188528
 H        -0.222406         3.131885        -0.309434
