19
Iteration:  1938charge 0 multiplicity 1
 O         0.312872         0.283025         0.573779
 C        -0.529439         1.251475         0.681411
 C        -2.015154         1.007494         0.318999
 C        -1.727877         1.621453         1.730235
 C        -1.290109         3.127915         1.551265
 C        -0.637655         3.650170         2.747808
 C         0.878859         3.328457         2.572548
 O         1.043626         3.200380         1.168502
 C        -0.162488         2.689439         0.556582
 H         1.052734         0.406256         1.106028
 H        -2.473255         1.791406        -0.360848
 H        -2.451859        -0.078900         0.193723
 H        -2.067796         1.249646         2.807942
 H        -2.129386         3.722600         1.189999
 H        -0.895509         4.632311         2.883266
 H        -1.147285         3.060138         3.508080
 H         1.594066         4.075480         2.905168
 H         0.980112         2.323728         3.119194
 H        -0.205125         3.074954        -0.508453
