19
Iteration:  4573charge 0 multiplicity 1
 O         0.247077         0.140646         0.644391
 C        -0.595369         1.283754         0.662410
 C        -1.961460         1.180393         0.101383
 C        -1.719695         1.548599         1.675991
 C        -1.342134         3.045317         1.589000
 C        -0.568746         3.384122         2.992249
 C         0.822431         3.769054         2.420605
 O         1.119109         3.003426         1.246460
 C        -0.122427         2.805644         0.605160
 H         1.068482         0.253001         0.121300
 H        -2.576020         1.870046        -0.479397
 H        -2.276541         0.169175         0.078957
 H        -2.239786         1.106260         2.635245
 H        -2.110504         3.805954         1.303965
 H        -1.012141         4.365225         3.528322
 H        -0.743082         2.472278         3.591699
 H         0.584961         4.812170         2.297737
 H         1.596872         3.586773         3.255163
 H        -0.147194         3.145906        -0.511986
