19
Iteration:  3572charge 0 multiplicity 1
 O         0.198884         0.106478         0.438553
 C        -0.554164         1.281758         0.540769
 C        -2.036711         1.132892         0.236192
 C        -1.714667         1.575132         1.644118
 C        -1.305194         3.014194         1.582512
 C        -0.658206         3.584548         2.954952
 C         0.772045         3.929463         2.473556
 O         1.178897         2.847843         1.396256
 C        -0.049629         2.705265         0.643872
 H         0.792265         0.192020         1.252918
 H        -2.507276         1.696143        -0.577690
 H        -2.229563         0.069991         0.089880
 H        -1.881712         0.923240         2.552243
 H        -2.077939         3.760168         1.293838
 H        -1.124066         4.568305         3.115158
 H        -0.638822         2.788565         3.749088
 H         0.800988         4.919875         1.862425
 H         1.507472         3.872344         3.318590
 H         0.024191         3.349016        -0.293502
