19
Iteration:  3613
 O         0.264188         0.102987         0.494570
 C        -0.549282         1.225085         0.651646
 C        -1.966409         1.212256         0.176409
 C        -1.760414         1.505066         1.585168
 C        -1.335713         3.078873         1.682564
 C        -0.617537         3.627700         2.882721
 C         0.852191         3.858538         2.469321
 O         1.061541         2.878733         1.325605
 C        -0.149678         2.692107         0.651974
 H         1.117056         0.124169         0.921492
 H        -2.164604         2.081613        -0.436973
 H        -2.198101         0.218188         0.119837
 H        -2.071585         0.834276         2.434241
 H        -2.106446         3.781325         1.223512
 H        -1.238733         4.473609         3.260305
 H        -0.476340         2.945746         3.750177
 H         1.005698         4.954159         2.271941
 H         1.505643         3.618755         3.227470
 H        -0.115340         2.954455        -0.460743
