19
Iteration:   663
 O         0.427299         0.409030         0.781324
 C        -0.605396         1.366476         0.709635
 C        -1.994276         1.077004         0.255688
 C        -1.817785         1.583807         1.638475
 C        -1.440816         3.120455         1.627648
 C        -0.505952         3.768959         2.702001
 C         0.837902         3.058385         2.597566
 O         1.069272         2.978182         1.117398
 C        -0.226515         2.778247         0.496900
 H         1.289883         1.042677         0.790858
 H        -2.630238         1.587845        -0.600565
 H        -2.161851        -0.034496         0.268918
 H        -2.085798         0.908665         2.435070
 H        -2.181719         3.767464         1.208009
 H        -0.398438         4.816839         2.421580
 H        -0.849870         3.808652         3.779594
 H         1.599796         3.691816         3.002231
 H         0.898958         2.063775         3.084624
 H        -0.242352         3.214571        -0.469224
