19
Iteration:   864
 O         0.359447         0.313700         0.674365
 C        -0.537010         1.388853         0.563905
 C        -2.047488         0.970373         0.345197
 C        -1.654995         1.655666         1.675961
 C        -1.363446         3.169914         1.560411
 C        -0.636449         3.725136         2.707138
 C         0.864590         3.251788         2.641922
 O         1.038685         2.858329         1.207014
 C        -0.198651         2.871304         0.474516
 H         1.179345         0.627588         1.256636
 H        -2.805663         1.462350        -0.507194
 H        -2.390178        -0.154287         0.340722
 H        -1.884027         1.118660         2.626371
 H        -2.251404         3.744691         1.250465
 H        -0.580511         4.910743         2.562665
 H        -1.014939         3.556949         3.717880
 H         1.580468         4.042459         2.856916
 H         0.924593         2.410368         3.330885
 H        -0.094347         3.231052        -0.537531
