19
Iteration:  2145
 O         0.310671         0.260074         0.518874
 C        -0.567779         1.316448         0.667669
 C        -2.091273         0.973744         0.406815
 C        -1.661653         1.602258         1.692665
 C        -1.357556         3.088438         1.452173
 C        -0.632321         3.701338         2.779169
 C         0.841000         3.294038         2.643168
 O         1.069431         3.197675         1.206099
 C        -0.075910         2.761494         0.555395
 H         1.118950         0.379757         0.976418
 H        -2.723274         1.513439        -0.350180
 H        -2.168729        -0.067522         0.479878
 H        -2.008468         1.225880         2.596599
 H        -2.128573         3.676066         0.893822
 H        -0.860497         4.747587         2.808095
 H        -1.057479         3.173588         3.666994
 H         1.574961         3.918228         3.094155
 H         0.952992         2.261888         3.019707
 H        -0.083488         3.104833        -0.521898
