19
Iteration:   643
 O         0.385433         0.241804         0.688036
 C        -0.548604         1.282891         0.706130
 C        -1.919567         1.095909         0.321106
 C        -1.612840         1.692574         1.732653
 C        -1.354171         3.208681         1.533540
 C        -0.608149         3.700648         2.685965
 C         0.773103         3.083561         2.547087
 O         0.988934         3.066987         1.142512
 C        -0.258211         2.774650         0.558799
 H         1.269444         0.733443         0.872986
 H        -2.282549         1.977495        -0.402873
 H        -2.487333         0.157477         0.227901
 H        -2.068698         1.345692         2.619012
 H        -2.257053         3.696875         1.238754
 H        -0.526652         4.878287         2.597625
 H        -1.199250         3.470434         3.631806
 H         1.589817         3.547273         2.997866
 H         0.750355         2.034589         2.937817
 H        -0.283864         3.251282        -0.401234
