19
Iteration:  3017charge 0 multiplicity 1
 O         0.197563         0.182827         0.552466
 C        -0.541258         1.292943         0.572073
 C        -2.004362         1.013335         0.240636
 C        -1.674936         1.597195         1.556255
 C        -1.350755         3.084558         1.574241
 C        -0.538716         3.633746         2.880978
 C         0.954208         3.781253         2.551440
 O         1.018128         2.890817         1.347176
 C        -0.201230         2.763091         0.557813
 H         0.986445        -0.021240         1.142396
 H        -2.597807         1.582397        -0.428951
 H        -2.277287         0.052544         0.227273
 H        -1.668926         1.032200         2.507278
 H        -2.202223         3.715354         1.251098
 H        -1.101135         4.388030         3.399078
 H        -0.673750         2.782677         3.696982
 H         1.216715         4.780277         2.273915
 H         1.361134         3.371898         3.441230
 H        -0.062513         3.242246        -0.478013
