19
Iteration:  3287
 O         0.289266         0.156756         0.559259
 C        -0.500403         1.282222         0.600396
 C        -2.097869         1.174454         0.235761
 C        -1.643975         1.535254         1.633286
 C        -1.358510         3.116050         1.681977
 C        -0.705635         3.623588         2.950981
 C         0.843994         3.720531         2.448830
 O         1.105222         2.837656         1.262936
 C        -0.091166         2.718030         0.551704
 H         1.006685         0.355319         1.217356
 H        -2.538391         1.928210        -0.459829
 H        -2.228281         0.065972        -0.050789
 H        -2.105460         0.993545         2.431532
 H        -2.189507         3.693731         1.333178
 H        -1.139621         4.625345         3.120226
 H        -0.791578         2.847607         3.653985
 H         0.889966         4.811000         2.101152
 H         1.552416         3.601483         3.369696
 H         0.028003         3.214088        -0.474628
