19
Iteration:  3366
 O         0.328644         0.197779         0.529873
 C        -0.660804         1.222899         0.677175
 C        -2.027259         1.200806         0.177837
 C        -1.786609         1.575694         1.616721
 C        -1.274222         3.066965         1.562508
 C        -0.521618         3.537312         2.924719
 C         0.833565         3.890765         2.355604
 O         1.087551         2.830833         1.404981
 C        -0.137891         2.663819         0.651890
 H         1.105582         0.597564         1.045451
 H        -2.713570         1.852493        -0.402758
 H        -2.281816         0.082293         0.118177
 H        -2.395511         1.078669         2.412480
 H        -2.080400         3.697593         1.238373
 H        -1.142605         4.150256         3.551803
 H        -0.428833         2.580921         3.402863
 H         0.690712         4.903928         1.928610
 H         1.638665         3.651635         3.161276
 H         0.000941         3.139505        -0.376348
