19
Iteration:   920
 O         0.296468         0.160440         0.604539
 C        -0.480191         1.307845         0.735405
 C        -1.851690         1.064021         0.298904
 C        -1.777993         1.682137         1.763302
 C        -1.409524         3.150517         1.556082
 C        -0.591127         3.775534         2.720716
 C         0.778899         3.101456         2.544984
 O         1.013644         3.178149         1.167079
 C        -0.210613         2.813588         0.576061
 H         1.329439         0.206716         0.763477
 H        -2.185726         1.509232        -0.804916
 H        -2.042311         0.003699         0.361311
 H        -2.058768         1.210001         2.645178
 H        -2.225971         3.670469         1.053223
 H        -0.347323         4.901498         2.580459
 H        -0.898127         3.700401         3.801088
 H         1.584307         3.681584         3.059447
 H         0.810434         2.084872         2.943877
 H        -0.277341         2.981895        -0.460916
