19
Iteration:  4619
 O         0.324503         0.276091         0.657896
 C        -0.617009         1.275108         0.619059
 C        -1.988277         1.093303         0.165224
 C        -1.844453         1.614793         1.583628
 C        -1.381118         3.033519         1.677090
 C        -0.567574         3.398637         2.971553
 C         0.915726         3.698107         2.474431
 O         1.123861         2.974675         1.189522
 C        -0.168409         2.770510         0.549799
 H         1.005893         0.515250         1.308056
 H        -2.209322         1.829103        -0.677325
 H        -2.323321         0.073561        -0.011984
 H        -2.274305         0.969698         2.277551
 H        -2.216045         3.708740         1.538267
 H        -1.022196         4.368058         3.486447
 H        -0.529909         2.614135         3.803640
 H         0.967847         4.765546         2.210621
 H         1.745506         3.393089         3.140271
 H        -0.352713         3.239730        -0.493435
