19
Iteration:  1350
 O         0.284307         0.092724         0.657305
 C        -0.515714         1.317010         0.653144
 C        -1.954103         1.137272         0.328317
 C        -1.492415         1.562467         1.677635
 C        -1.394416         3.074213         1.603223
 C        -0.665070         3.893025         2.745478
 C         0.736903         3.176138         2.580386
 O         1.037567         3.151642         1.171363
 C        -0.192774         2.827052         0.488220
 H         1.162781         0.319967         0.783102
 H        -2.391087         1.886090        -0.391127
 H        -2.301248        -0.018159         0.305207
 H        -1.637613         0.962490         2.666700
 H        -2.256393         3.644505         1.327769
 H        -0.686402         4.948308         2.562476
 H        -1.118414         3.645348         3.711857
 H         1.665763         3.551632         3.055620
 H         0.549657         2.172070         3.003661
 H        -0.255542         3.236520        -0.569990
