19
Iteration:   573
 O         0.262804         0.145238         0.483535
 C        -0.594161         1.208422         0.597632
 C        -1.978366         1.128878         0.278583
 C        -1.567764         1.587898         1.714597
 C        -1.351701         3.090187         1.685007
 C        -0.665799         3.902040         2.716248
 C         0.781380         3.409417         2.574659
 O         1.039545         3.006622         1.255907
 C        -0.110911         2.680422         0.608940
 H         1.240113         0.331211         0.877312
 H        -2.427711         1.952690        -0.225851
 H        -2.463388         0.124246         0.298307
 H        -1.968712         0.977061         2.595612
 H        -2.081305         3.717281         1.164931
 H        -0.830617         4.917043         2.576766
 H        -0.872676         3.631586         3.750526
 H         1.616260         4.196230         2.780830
 H         0.950330         2.590287         3.264381
 H        -0.004857         3.140157        -0.394047
