19
Iteration:  4810
 O         0.311484         0.281492         0.405720
 C        -0.615951         1.314873         0.637794
 C        -2.085394         1.053569         0.260322
 C        -1.769456         1.541475         1.681625
 C        -1.312311         3.037690         1.597891
 C        -0.577938         3.552129         2.880066
 C         0.846698         3.804718         2.532742
 O         1.100307         2.833241         1.327921
 C        -0.115168         2.735765         0.630093
 H         0.982637         0.577217         1.059139
 H        -2.470458         1.677376        -0.540119
 H        -2.139994         0.012845         0.079101
 H        -2.197057         0.886714         2.552555
 H        -1.972406         3.757658         1.236237
 H        -1.007798         4.408616         3.319713
 H        -0.570150         2.714753         3.603911
 H         1.087341         4.735311         1.980997
 H         1.503998         3.709973         3.327383
 H        -0.101439         3.293961        -0.372707
