19
Iteration:  4412
 O         0.395953         0.215239         0.489149
 C        -0.610792         1.210561         0.666308
 C        -2.094216         1.156834         0.171517
 C        -1.672273         1.615126         1.616407
 C        -1.321548         3.004901         1.629438
 C        -0.625701         3.624526         2.961065
 C         0.834728         3.770234         2.472887
 O         1.051704         2.854137         1.351924
 C        -0.116222         2.671170         0.664350
 H         1.156880         0.566224        -0.046690
 H        -2.567210         1.927887        -0.553932
 H        -2.612815         0.144117         0.332931
 H        -2.167831         0.951750         2.362447
 H        -2.062078         3.701254         1.154758
 H        -1.025164         4.666502         3.138965
 H        -0.762674         3.001075         3.893525
 H         0.933439         4.781124         1.967304
 H         1.622064         3.422695         3.110629
 H        -0.249251         3.175264        -0.359546
