19
Iteration:   777
 O         0.160201         0.059539         0.506257
 C        -0.514153         1.305242         0.674471
 C        -1.915766         1.054599         0.244495
 C        -1.546246         1.550625         1.678529
 C        -1.365368         3.119843         1.706252
 C        -0.635708         3.870331         2.726650
 C         0.811399         3.357297         2.627874
 O         1.075280         3.129424         1.217697
 C        -0.184713         2.764152         0.568767
 H         0.860942        -0.172097         1.068957
 H        -2.394832         1.777383        -0.558052
 H        -2.337073        -0.027315         0.209764
 H        -2.019900         0.940389         2.500578
 H        -2.151380         3.666485         1.149433
 H        -0.708851         5.039421         2.453541
 H        -1.023192         3.843939         3.753845
 H         1.604333         4.080879         2.973383
 H         0.861150         2.434032         3.228689
 H        -0.102067         3.229050        -0.457680
