19
Iteration:  2850charge 0 multiplicity 1
 O         0.264866         0.194401         0.633211
 C        -0.585032         1.272544         0.565747
 C        -1.958489         1.045757         0.205372
 C        -1.835231         1.594812         1.562576
 C        -1.352961         3.063999         1.562061
 C        -0.496518         3.513483         2.923332
 C         0.909554         3.744712         2.447384
 O         1.068384         2.949575         1.337341
 C        -0.230405         2.779033         0.623269
 H         1.109499         0.474810         0.951879
 H        -2.461049         1.672048        -0.472359
 H        -2.211139        -0.005110         0.167817
 H        -2.396221         1.118730         2.305844
 H        -2.111950         3.848628         1.347632
 H        -0.857415         4.475963         3.426656
 H        -0.409197         2.684958         3.760497
 H         1.332276         4.816949         2.151851
 H         1.553766         3.271075         3.222793
 H        -0.145671         3.260560        -0.435222
