19
Iteration:  1873charge 0 multiplicity 1
 O         0.393112         0.288046         0.658411
 C        -0.631306         1.234882         0.711574
 C        -1.997338         1.108424         0.199919
 C        -1.772556         1.554271         1.613978
 C        -1.410740         3.065807         1.650651
 C        -0.595807         3.678561         2.761525
 C         0.917923         3.436492         2.537777
 O         1.093840         3.016550         1.171306
 C        -0.227180         2.705868         0.599724
 H         1.260335         0.736689         0.731066
 H        -2.409534         1.893414        -0.436405
 H        -2.386296        -0.006462         0.209044
 H        -2.309573         1.009718         2.505012
 H        -2.118132         3.842430         1.417191
 H        -0.817016         4.766013         2.810412
 H        -0.873412         3.316218         3.811190
 H         1.431029         4.375038         2.517600
 H         1.396689         2.717863         3.281203
 H        -0.210003         3.159230        -0.392738
