19
Iteration:  2338
 O         0.486703         0.459847         0.587559
 C        -0.681780         1.231952         0.649881
 C        -2.089207         1.070778         0.276097
 C        -1.666889         1.563125         1.720711
 C        -1.354418         3.096329         1.602369
 C        -0.581699         3.789434         2.717938
 C         0.860165         3.365597         2.580919
 O         0.988859         2.827875         1.244941
 C        -0.194514         2.682165         0.541873
 H         1.208169         1.031004         0.851757
 H        -2.512753         1.817771        -0.540069
 H        -2.492056         0.090057         0.149624
 H        -2.184751         1.009361         2.497978
 H        -2.316862         3.429163         1.316224
 H        -0.540141         4.899342         2.757927
 H        -0.821424         3.576644         3.728868
 H         1.502410         4.261404         2.626310
 H         1.249443         2.654491         3.329075
 H        -0.050374         3.129126        -0.482741
