19
Iteration:  1390charge 0 multiplicity 1
 O         0.355581         0.245067         0.436070
 C        -0.570311         1.158477         0.773272
 C        -2.047871         0.956368         0.299182
 C        -1.819351         1.644286         1.692806
 C        -1.280044         3.140930         1.518059
 C        -0.598215         3.824327         2.790235
 C         0.904870         3.393981         2.611875
 O         1.033944         3.130831         1.256496
 C        -0.180828         2.677235         0.554889
 H         1.217440         0.238315         1.018559
 H        -2.590761         1.473644        -0.450937
 H        -2.280968        -0.066723         0.404687
 H        -2.169883         1.223332         2.593758
 H        -2.178811         3.698544         1.051311
 H        -0.671147         4.937299         2.664367
 H        -1.090420         3.494818         3.773969
 H         1.676059         4.084669         2.912926
 H         1.013947         2.428969         3.186425
 H         0.092551         3.030833        -0.492613
