19
Iteration:  1036
 O         0.292488         0.241460         0.580851
 C        -0.556973         1.288972         0.685284
 C        -2.055323         1.081947         0.261821
 C        -1.666735         1.544309         1.704437
 C        -1.312532         3.058013         1.544937
 C        -0.647180         3.781060         2.747483
 C         0.839858         3.290700         2.554562
 O         1.082968         3.146313         1.195546
 C        -0.140958         2.700727         0.631835
 H         1.073928         0.426948         1.223482
 H        -2.446375         1.802694        -0.359022
 H        -2.496065         0.147198         0.201344
 H        -1.988069         0.999824         2.576511
 H        -2.111477         3.742096         1.157263
 H        -0.819752         4.861145         2.576704
 H        -1.118388         3.607023         3.687844
 H         1.508193         4.021186         3.018415
 H         1.025011         2.296299         3.052054
 H        -0.004171         3.045113        -0.492529
