19
Iteration:  1725
 O         0.410179         0.305854         0.665019
 C        -0.655638         1.235631         0.507087
 C        -2.142299         0.994250         0.321504
 C        -1.647499         1.560890         1.617913
 C        -1.287850         3.133117         1.586086
 C        -0.547075         3.812256         2.720739
 C         0.894520         3.278866         2.611139
 O         0.990817         3.010501         1.236708
 C        -0.231820         2.775106         0.600422
 H         1.087906         0.843560         1.255752
 H        -2.635093         1.424791        -0.551015
 H        -2.072704        -0.173714         0.250971
 H        -1.921103         1.041420         2.596471
 H        -2.142921         3.722910         1.172287
 H        -0.633847         4.860088         2.543564
 H        -1.030957         3.617502         3.608569
 H         1.518115         4.244618         2.746717
 H         1.269758         2.581714         3.389838
 H        -0.294439         3.391371        -0.388759
