19
Iteration:  4699
 O         0.276536         0.172389         0.365595
 C        -0.564168         1.249538         0.715297
 C        -1.929504         1.186802         0.213070
 C        -1.800899         1.581236         1.642012
 C        -1.352931         3.025662         1.645706
 C        -0.621749         3.517691         2.912179
 C         0.824032         3.842195         2.422115
 O         1.127708         2.874717         1.411662
 C        -0.149085         2.702200         0.628615
 H         1.149027         0.416373         0.713936
 H        -2.439472         1.915070        -0.442311
 H        -2.292833         0.134248         0.098076
 H        -2.269969         0.979984         2.455498
 H        -2.110399         3.724213         1.400473
 H        -1.086145         4.377016         3.347923
 H        -0.327338         2.778633         3.708324
 H         0.868102         4.848037         1.983789
 H         1.481172         3.810910         3.214818
 H        -0.157304         3.087614        -0.431687
