19
Iteration:   842
 O         0.331100         0.361293         0.551781
 C        -0.595022         1.310771         0.592068
 C        -1.941045         0.922294         0.365722
 C        -1.761004         1.744823         1.677549
 C        -1.326429         3.207418         1.506338
 C        -0.624821         3.772873         2.727346
 C         0.887537         3.335827         2.591079
 O         1.030343         2.795760         1.295458
 C        -0.196619         2.744882         0.566009
 H         1.051523         0.606158         1.052077
 H        -2.676161         1.302112        -0.529271
 H        -2.084042        -0.239853         0.417871
 H        -1.844672         1.044579         2.521929
 H        -2.053134         3.939091         1.106434
 H        -0.734867         4.959419         2.800396
 H        -0.979500         3.406702         3.694768
 H         1.571846         4.192225         2.690913
 H         1.133550         2.546931         3.307964
 H        -0.330063         3.361161        -0.303303
