19
Iteration:  3644
 O         0.334471         0.256787         0.565634
 C        -0.623265         1.225774         0.633977
 C        -2.062675         1.083177         0.177452
 C        -1.804462         1.610814         1.607701
 C        -1.288373         3.065266         1.620634
 C        -0.605479         3.514614         2.919802
 C         0.854973         3.848865         2.477974
 O         1.127475         2.830541         1.341904
 C        -0.142646         2.693812         0.596629
 H         1.192951         0.568577         0.958310
 H        -2.386395         1.817652        -0.710472
 H        -2.465917         0.071389        -0.002144
 H        -2.280126         0.974633         2.417584
 H        -1.962827         3.895004         1.307527
 H        -1.097310         4.457009         3.200615
 H        -0.517044         2.698686         3.620922
 H         0.760088         4.832844         2.070813
 H         1.617595         3.755872         3.239766
 H        -0.037152         3.112707        -0.396289
