19
Iteration:   670
 O         0.425378         0.473161         0.796082
 C        -0.663887         1.348879         0.670478
 C        -2.028677         0.973196         0.220889
 C        -1.851874         1.516610         1.592585
 C        -1.352309         3.186854         1.624020
 C        -0.461969         3.783700         2.718379
 C         0.853541         3.101705         2.630855
 O         1.081860         2.985389         1.122224
 C        -0.231119         2.753546         0.514268
 H         1.151046         1.170629         0.907722
 H        -2.569194         1.577017        -0.342976
 H        -2.297157        -0.081682         0.221715
 H        -2.267126         0.880138         2.443194
 H        -2.276482         3.742032         1.262762
 H        -0.338362         4.824867         2.481025
 H        -0.933956         3.672710         3.666012
 H         1.814797         3.611063         3.050016
 H         0.840740         2.107811         3.091801
 H        -0.252378         3.289527        -0.498506
