19
Iteration:  1381
 O         0.348457         0.193414         0.441461
 C        -0.557148         1.280074         0.795738
 C        -2.031131         1.076717         0.359585
 C        -1.767554         1.591878         1.708238
 C        -1.311341         3.063563         1.449045
 C        -0.613112         3.807764         2.735351
 C         0.869647         3.307790         2.637327
 O         1.031744         3.187838         1.211079
 C        -0.154018         2.645190         0.641486
 H         1.172261         0.459413         1.023191
 H        -2.409958         1.644150        -0.486130
 H        -2.353908        -0.021652         0.330895
 H        -2.021657         1.194887         2.721716
 H        -2.077367         3.748247         1.044272
 H        -0.785128         4.828895         2.532997
 H        -1.267094         3.580700         3.617824
 H         1.676351         3.972383         2.830605
 H         1.095685         2.380184         3.143105
 H        -0.186000         2.941161        -0.490831
