19
Iteration:  2409
 O         0.299340         0.084982         0.507061
 C        -0.555018         1.181300         0.639347
 C        -2.032700         1.140425         0.361988
 C        -1.631102         1.583604         1.752877
 C        -1.327364         3.014424         1.576091
 C        -0.637790         3.732681         2.735430
 C         0.783644         3.305418         2.600236
 O         1.042552         3.344938         1.162142
 C        -0.060964         2.740426         0.581326
 H         1.053119         0.137472         1.045911
 H        -2.555019         1.836190        -0.246025
 H        -2.348395         0.164945         0.275990
 H        -2.279441         1.454439         2.604712
 H        -2.144955         3.581286         1.052939
 H        -0.745971         4.838766         2.721941
 H        -1.159153         3.450707         3.747937
 H         1.487802         4.041673         3.019225
 H         1.052697         2.305403         3.129988
 H        -0.141089         3.035062        -0.402464
