19
Iteration:    77
 O         0.274239         0.237873         0.691771
 C        -0.520730         1.317174         0.764685
 C        -1.967479         1.148021         0.291859
 C        -1.682011         1.663086         1.727297
 C        -1.330956         3.088895         1.586074
 C        -0.638973         3.655191         2.718403
 C         0.834013         3.166848         2.504618
 O         1.031787         3.137386         1.084369
 C        -0.150290         2.762062         0.574900
 H         1.175357         0.514527         0.802751
 H        -2.445005         1.776882        -0.484460
 H        -2.143487         0.038716         0.185901
 H        -2.091232         1.306471         2.632146
 H        -2.104840         3.682364         1.211056
 H        -0.758410         4.755880         2.792754
 H        -1.013511         3.272413         3.684375
 H         1.553836         3.848718         2.913411
 H         0.865333         2.161164         2.903130
 H        -0.307129         3.129128        -0.441514
