19
Iteration:  1051
 O         0.285947         0.148174         0.595450
 C        -0.534369         1.287771         0.671639
 C        -1.954698         1.174168         0.354805
 C        -1.522800         1.604524         1.741190
 C        -1.378841         3.105840         1.557069
 C        -0.686511         3.755144         2.664686
 C         0.724608         3.234462         2.627647
 O         1.079136         3.091743         1.181845
 C        -0.172884         2.834073         0.490273
 H         0.920067         0.130626         1.265495
 H        -2.628905         1.872368        -0.298180
 H        -2.126623         0.061010         0.168790
 H        -1.708097         1.064404         2.669456
 H        -2.273650         3.520050         1.075389
 H        -0.626543         4.885693         2.739960
 H        -1.027382         3.391889         3.666667
 H         1.607383         3.814484         2.965690
 H         0.771650         2.199986         3.110062
 H        -0.291397         3.373967        -0.460857
