19
Iteration:  2296charge 0 multiplicity 1
 O         0.316914         0.253835         0.491243
 C        -0.595614         1.281405         0.636818
 C        -1.993463         0.980704         0.371757
 C        -1.594136         1.552489         1.728667
 C        -1.366716         3.136528         1.573627
 C        -0.603636         3.845385         2.745406
 C         0.779408         3.210154         2.634211
 O         1.053986         3.150122         1.230880
 C        -0.172848         2.763417         0.479925
 H         1.118088         0.438196         1.106248
 H        -2.600416         1.364088        -0.429117
 H        -2.201912        -0.038085         0.571554
 H        -1.993580         0.962948         2.556290
 H        -2.130381         3.856912         1.250825
 H        -0.597033         4.989999         2.613899
 H        -1.216449         3.716485         3.682840
 H         1.572894         3.822932         3.042178
 H         0.835852         2.172839         3.116367
 H        -0.006559         3.116121        -0.484788
