19
Iteration:  4179
 O         0.247275         0.176845         0.606609
 C        -0.596185         1.273312         0.661711
 C        -2.004719         1.184981         0.133969
 C        -1.691621         1.537044         1.667129
 C        -1.295204         2.980270         1.657921
 C        -0.640784         3.587783         2.879372
 C         0.834695         3.760857         2.480631
 O         1.107890         2.955630         1.324770
 C        -0.098853         2.735049         0.569440
 H         0.531688         0.110324        -0.343195
 H        -2.657574         1.900256        -0.316293
 H        -2.209240         0.111880         0.057191
 H        -1.753250         0.792470         2.529257
 H        -2.121127         3.664798         1.359192
 H        -1.094716         4.607030         3.182919
 H        -0.723280         2.861339         3.737255
 H         0.976934         4.841146         2.135072
 H         1.448393         3.274369         3.296715
 H        -0.015027         3.101870        -0.500648
