19
Iteration:  3201
 O         0.280609         0.164644         0.550584
 C        -0.563330         1.272519         0.606127
 C        -1.995785         1.195910         0.185921
 C        -1.651889         1.523055         1.669336
 C        -1.391913         3.052158         1.606379
 C        -0.582002         3.580051         2.851989
 C         0.880845         3.861733         2.370340
 O         1.017077         2.866637         1.425432
 C        -0.187331         2.694332         0.611317
 H         0.884839        -0.039305         1.252170
 H        -2.295357         2.039003        -0.508416
 H        -2.522445         0.241243         0.103793
 H        -1.748267         0.810738         2.444244
 H        -2.080796         3.761271         1.138788
 H        -1.075381         4.281957         3.440879
 H        -0.625204         2.731277         3.497440
 H         1.096662         4.764489         1.891329
 H         1.560026         3.539383         3.222585
 H         0.086018         3.306279        -0.281191
