19
Iteration:  3077charge 0 multiplicity 1
 O         0.322305         0.207886         0.598902
 C        -0.578675         1.269643         0.657575
 C        -2.000443         1.092985         0.081441
 C        -1.788137         1.586442         1.604513
 C        -1.286031         3.102251         1.688773
 C        -0.487780         3.532957         2.859192
 C         0.887754         3.806433         2.410795
 O         1.004829         2.876982         1.366236
 C        -0.313299         2.663702         0.647640
 H         1.190615         0.595989         0.830035
 H        -2.292656         1.861993        -0.691949
 H        -2.255385        -0.080584        -0.012487
 H        -2.331063         1.130866         2.502119
 H        -1.986499         3.881122         1.398481
 H        -0.988690         4.427125         3.315274
 H        -0.396371         2.733697         3.494591
 H         1.292902         4.778032         1.996847
 H         1.604028         3.522899         3.228874
 H        -0.128074         3.228212        -0.265672
