19
Iteration:  1606charge 0 multiplicity 1
 O         0.447671         0.335120         0.663915
 C        -0.573416         1.284959         0.719711
 C        -2.008144         1.060925         0.290982
 C        -1.641336         1.665918         1.697478
 C        -1.398386         3.103646         1.564645
 C        -0.679432         3.762909         2.740731
 C         0.836835         3.187150         2.510279
 O         1.057197         2.981907         1.116845
 C        -0.236254         2.742378         0.568357
 H         1.236501         0.836404         1.004634
 H        -2.452798         1.853223        -0.313270
 H        -2.704929         0.068319         0.312409
 H        -1.973454         1.101615         2.642692
 H        -2.198677         3.627855         1.135639
 H        -0.683403         4.851610         2.892731
 H        -1.036158         3.313312         3.675580
 H         1.516425         4.044606         2.858083
 H         1.025822         2.409114         3.254655
 H        -0.250662         3.225800        -0.435454
