19
Iteration:  2313charge 0 multiplicity 1
 O         0.442549         0.291823         0.512093
 C        -0.548527         1.306717         0.652457
 C        -1.965969         1.012817         0.339158
 C        -1.721881         1.658967         1.714536
 C        -1.408398         3.112533         1.620746
 C        -0.633461         3.806166         2.700566
 C         0.819900         3.292214         2.578949
 O         1.031497         2.891770         1.190563
 C        -0.256875         2.778121         0.613717
 H         1.318355         0.586493         0.957975
 H        -2.540882         1.777053        -0.365768
 H        -2.227470        -0.036138         0.178579
 H        -1.857724         1.243846         2.686924
 H        -2.314224         3.591764         1.225226
 H        -0.615406         4.858836         2.546153
 H        -0.841955         3.685383         3.744420
 H         1.613625         4.010327         2.941401
 H         0.915204         2.439439         3.218615
 H        -0.301957         3.390500        -0.390654
