19
Iteration:  1676charge 0 multiplicity 1
 O         0.287244         0.093375         0.564773
 C        -0.474472         1.206672         0.740511
 C        -1.874153         1.117159         0.355584
 C        -1.776472         1.643189         1.710876
 C        -1.364622         3.117889         1.500289
 C        -0.613589         3.698452         2.766205
 C         0.863160         3.288267         2.536253
 O         0.959537         3.301125         1.150060
 C        -0.151879         2.688014         0.620458
 H         1.167766         0.183506         0.810448
 H        -2.460170         1.750438        -0.361093
 H        -2.250082         0.189987         0.435459
 H        -2.131658         1.273693         2.614670
 H        -2.023143         3.845553         0.941506
 H        -0.806237         4.812771         2.657108
 H        -1.059585         3.395438         3.822311
 H         1.629310         3.901094         2.911335
 H         1.001522         2.311250         2.983577
 H        -0.163776         3.013221        -0.385460
