19
Iteration:  2480charge 0 multiplicity 1
 O         0.515127         0.421146         0.642290
 C        -0.657127         1.292575         0.614880
 C        -2.133440         0.998262         0.381794
 C        -1.651588         1.634728         1.702510
 C        -1.386880         3.184033         1.422832
 C        -0.605106         3.669092         2.766465
 C         0.875967         3.167436         2.622448
 O         1.026066         2.976890         1.197082
 C        -0.225129         2.748541         0.542496
 H         1.215767         1.067584         0.717756
 H        -2.866245         1.655579        -0.092055
 H        -2.271569        -0.228052         0.223286
 H        -2.058860         1.217172         2.682025
 H        -2.100357         3.945625         1.084710
 H        -0.617813         4.758743         2.719926
 H        -1.088236         3.478228         3.672217
 H         1.569433         3.996320         2.954079
 H         1.193071         2.244981         3.129670
 H        -0.082078         3.258898        -0.532430
