19
Iteration:  1248charge 0 multiplicity 1
 O         0.275938         0.338949         0.742835
 C        -0.639468         1.367423         0.572481
 C        -2.001429         0.976254         0.289824
 C        -1.708773         1.531686         1.683885
 C        -1.307305         2.993188         1.585887
 C        -0.590454         3.772988         2.725751
 C         0.859461         3.228576         2.590610
 O         1.091684         3.124293         1.161879
 C        -0.168960         2.799085         0.523201
 H         1.070747         0.562498         1.160329
 H        -2.361292         1.660750        -0.523516
 H        -2.047640        -0.061461         0.086754
 H        -1.856531         0.910289         2.526532
 H        -2.217655         3.628750         1.350376
 H        -0.727661         4.844721         2.457872
 H        -0.976579         3.615209         3.766264
 H         1.606123         3.810787         3.096182
 H         0.791688         2.235072         3.033590
 H        -0.330423         3.456894        -0.457843
