19
Iteration:  3568charge 0 multiplicity 1
 O         0.211600         0.123598         0.441986
 C        -0.579676         1.273721         0.534078
 C        -2.033618         1.101063         0.212221
 C        -1.731161         1.610248         1.691396
 C        -1.304162         3.008647         1.573560
 C        -0.662029         3.587322         2.949299
 C         0.796151         3.930748         2.477641
 O         1.174940         2.834246         1.419164
 C        -0.050923         2.689020         0.604539
 H         0.886605         0.112286         1.116245
 H        -2.454644         1.845743        -0.483332
 H        -2.128677         0.056761         0.033901
 H        -1.936480         0.984163         2.536795
 H        -2.137841         3.689975         1.240716
 H        -1.088721         4.558087         3.282802
 H        -0.628627         2.807830         3.698909
 H         0.770560         4.941487         1.964791
 H         1.508796         3.996002         3.260529
 H        -0.039348         3.359325        -0.310464
