19
Iteration:  1706charge 0 multiplicity 1
 O         0.331477         0.236314         0.657757
 C        -0.551708         1.251008         0.657863
 C        -2.005417         1.083629         0.286597
 C        -1.688732         1.556780         1.700740
 C        -1.387100         3.068700         1.571289
 C        -0.638350         3.748087         2.787395
 C         0.835165         3.365296         2.562043
 O         1.111347         3.054261         1.127876
 C        -0.180710         2.774377         0.505169
 H         1.185466         0.562027         1.132752
 H        -2.675276         1.762493        -0.363539
 H        -2.527370         0.152711         0.375555
 H        -1.788027         1.070159         2.618636
 H        -2.185380         3.703747         1.299429
 H        -0.913621         4.803251         2.685434
 H        -0.957126         3.422972         3.789792
 H         1.599565         4.091035         2.896920
 H         0.873278         2.453484         3.242711
 H        -0.140395         3.253289        -0.476040
