19
Iteration:  2403
 O         0.272422         0.061535         0.498693
 C        -0.514092         1.217754         0.665882
 C        -2.032753         1.124234         0.368450
 C        -1.648592         1.572857         1.752274
 C        -1.317317         3.054748         1.532690
 C        -0.682426         3.786581         2.780966
 C         0.800595         3.303302         2.618798
 O         1.059718         3.303778         1.127921
 C        -0.072528         2.732918         0.599290
 H         1.116648         0.269650         1.001881
 H        -2.533174         1.841783        -0.404691
 H        -2.396033         0.022602         0.267079
 H        -2.126401         1.185520         2.698688
 H        -2.102698         3.650320         1.064946
 H        -0.854099         4.852227         2.951102
 H        -1.120270         3.261936         3.585980
 H         1.421048         4.101704         3.099461
 H         1.167866         2.395754         3.015396
 H        -0.129129         3.168472        -0.500342
