19
Iteration:  4248charge 0 multiplicity 1
 O         0.293494         0.150302         0.648036
 C        -0.598412         1.294256         0.670242
 C        -2.000327         1.194936         0.094895
 C        -1.780171         1.555280         1.625334
 C        -1.321425         3.014193         1.685070
 C        -0.577588         3.421118         2.873602
 C         0.789457         3.863652         2.365004
 O         1.183991         2.896900         1.334308
 C        -0.116454         2.776245         0.666164
 H         0.376340        -0.184796        -0.244913
 H        -2.462900         2.062551        -0.527416
 H        -2.438701         0.196258         0.136697
 H        -2.011596         1.024162         2.521168
 H        -2.235489         3.647838         1.389906
 H        -1.117385         4.224085         3.350466
 H        -0.252586         2.711839         3.601524
 H         0.602804         4.846633         1.919684
 H         1.471280         3.838764         3.145652
 H        -0.153026         3.532158        -0.131816
