19
Iteration:  1004charge 0 multiplicity 1
 O         0.412053         0.178804         0.580281
 C        -0.577849         1.240883         0.688006
 C        -1.964311         0.997974         0.214153
 C        -1.829402         1.663705         1.609341
 C        -1.367793         3.152897         1.595945
 C        -0.585115         3.753125         2.797397
 C         0.921892         3.375206         2.575783
 O         1.031892         3.028292         1.204990
 C        -0.269630         2.773150         0.711908
 H         1.309649         0.464611         0.524519
 H        -2.352832         1.461219        -0.675944
 H        -2.407143         0.069004         0.367538
 H        -2.470928         1.298645         2.387863
 H        -2.119301         3.919467         1.258124
 H        -0.698376         4.884130         2.738626
 H        -0.906222         3.453491         3.755000
 H         1.618829         4.191470         2.725670
 H         1.368009         2.476035         3.074821
 H        -0.228743         3.082597        -0.395871
