19
Iteration:  3611charge 0 multiplicity 1
 O         0.253358         0.092888         0.486947
 C        -0.562607         1.217707         0.634800
 C        -1.958333         1.212793         0.185822
 C        -1.748606         1.484067         1.597425
 C        -1.342727         3.082251         1.663602
 C        -0.599143         3.631595         2.891591
 C         0.844024         3.884503         2.493465
 O         1.062498         2.874617         1.326252
 C        -0.154415         2.706972         0.631443
 H         1.076648         0.154850         1.030623
 H        -2.121182         2.113125        -0.493037
 H        -2.227119         0.144177         0.050036
 H        -2.016706         0.898538         2.473127
 H        -2.115006         3.758114         1.236650
 H        -1.266098         4.412297         3.291355
 H        -0.506754         3.004381         3.766508
 H         1.060378         4.911482         2.263374
 H         1.549706         3.628712         3.251900
 H        -0.079929         2.944816        -0.428823
