19
Iteration:  3514charge 0 multiplicity 1
 O         0.328131         0.297090         0.526746
 C        -0.637308         1.250563         0.618461
 C        -2.045908         1.115879         0.152157
 C        -1.724595         1.517440         1.623048
 C        -1.270730         3.059991         1.557823
 C        -0.576260         3.614350         2.946061
 C         0.831546         3.769131         2.349177
 O         1.038415         2.790623         1.408815
 C        -0.115807         2.682279         0.711851
 H         1.015775         0.355598         1.181741
 H        -2.389107         1.854920        -0.533784
 H        -2.472847         0.113732         0.050696
 H        -2.283716         0.856968         2.249831
 H        -2.047692         3.862736         1.348016
 H        -0.907398         4.616630         3.328453
 H        -0.675138         3.039333         3.906142
 H         0.952632         4.845210         1.847518
 H         1.581963         3.786708         3.091684
 H        -0.019518         3.235958        -0.307750
