19
Iteration:  1954
 O         0.361090         0.114264         0.532994
 C        -0.539446         1.261933         0.783018
 C        -1.936586         1.120884         0.323561
 C        -1.687232         1.629976         1.717223
 C        -1.428664         3.085346         1.553886
 C        -0.631192         3.745053         2.794724
 C         0.799247         3.226945         2.564857
 O         1.041199         3.193195         1.130338
 C        -0.198937         2.784256         0.562035
 H         1.198818         0.546092         0.789422
 H        -2.380445         1.600320        -0.510676
 H        -2.136250         0.083124         0.423095
 H        -2.129180         1.082066         2.485782
 H        -2.154695         3.811941         1.141535
 H        -0.585981         4.935245         2.679649
 H        -0.897173         3.493381         3.858826
 H         1.538521         3.944704         2.994233
 H         1.014410         2.259148         3.004156
 H        -0.282487         3.173527        -0.442392
