19
Iteration:  1137charge 0 multiplicity 1
 O         0.456086         0.337874         0.607554
 C        -0.601840         1.235590         0.589494
 C        -2.020406         0.962396         0.232874
 C        -1.621659         1.637902         1.733832
 C        -1.350605         3.120730         1.578175
 C        -0.615429         3.933080         2.775547
 C         0.817033         3.269253         2.608879
 O         0.979465         2.862458         1.242656
 C        -0.248145         2.782461         0.484628
 H         1.062068         0.838295         1.295631
 H        -2.493075         1.757578        -0.326062
 H        -2.703944         0.063762         0.294694
 H        -1.785362         0.900466         2.561879
 H        -2.182457         3.810490         1.215039
 H        -0.585418         5.069584         2.696450
 H        -0.798562         3.591026         3.771933
 H         1.720798         3.874251         2.842447
 H         0.898311         2.334671         3.198522
 H        -0.257453         3.352962        -0.567629
