19
Iteration:   722charge 0 multiplicity 1
 O         0.341827         0.241857         0.665215
 C        -0.575759         1.354033         0.745225
 C        -1.944261         1.109816         0.351388
 C        -1.725077         1.695122         1.774330
 C        -1.365830         3.156461         1.474553
 C        -0.665485         3.624564         2.736294
 C         0.811407         3.154994         2.527092
 O         1.087901         3.073172         1.140772
 C        -0.190738         2.774987         0.522487
 H         1.228064         0.608540         0.874909
 H        -2.338984         1.853641        -0.484348
 H        -2.105383         0.025414         0.146958
 H        -2.020678         1.293495         2.778085
 H        -2.117395         3.716543         0.851076
 H        -0.778903         4.783308         2.953597
 H        -0.995556         3.032932         3.590645
 H         1.562339         3.865325         2.933663
 H         0.918156         2.161475         3.001527
 H        -0.209230         3.283020        -0.485765
