19
Iteration:  2119
 O         0.240877         0.071448         0.461984
 C        -0.463735         1.249405         0.701138
 C        -1.918225         1.051990         0.352169
 C        -1.663985         1.596753         1.703087
 C        -1.341153         3.061693         1.549230
 C        -0.605736         3.807208         2.785468
 C         0.737224         3.215411         2.630316
 O         1.052388         3.319930         1.210948
 C        -0.178861         2.799896         0.564828
 H         1.127811         0.064903         0.726123
 H        -2.455633         1.670299        -0.294363
 H        -2.237678         0.009666         0.457866
 H        -2.052033         1.196016         2.718177
 H        -2.141726         3.621857         1.027370
 H        -0.506147         4.882565         2.360225
 H        -1.078203         3.737750         3.769726
 H         1.378689         3.982189         3.126751
 H         0.932558         2.176733         2.960069
 H        -0.295788         3.113884        -0.425007
