19
Iteration:  2586charge 0 multiplicity 1
 O         0.309547         0.193958         0.485756
 C        -0.562084         1.211804         0.677719
 C        -1.972548         1.043702         0.310197
 C        -1.649372         1.648380         1.678586
 C        -1.311462         3.151177         1.534450
 C        -0.690510         3.736777         2.901087
 C         0.870018         3.395429         2.585698
 O         1.032814         3.085398         1.172680
 C        -0.224196         2.683814         0.577790
 H         1.176269         0.403832         0.959501
 H        -2.387723         1.650068        -0.420173
 H        -2.146162        -0.063261         0.350165
 H        -2.212548         1.178625         2.560892
 H        -2.049785         3.918867         1.185846
 H        -0.916408         4.848899         2.830844
 H        -1.027035         3.208364         3.869959
 H         1.502881         4.342185         2.767911
 H         1.387671         2.640539         3.211227
 H        -0.175307         3.048627        -0.412341
