19
Iteration:  4148
 O         0.328928         0.076116         0.561305
 C        -0.578195         1.244403         0.583736
 C        -2.060162         1.178363         0.143188
 C        -1.681749         1.566585         1.563158
 C        -1.341321         3.078518         1.653042
 C        -0.670346         3.654978         2.949597
 C         0.904714         3.744638         2.432685
 O         1.045567         2.912459         1.341355
 C        -0.141150         2.714729         0.703833
 H         1.053517         0.236075        -0.057385
 H        -2.825137         1.916143        -0.251308
 H        -2.277075         0.079312         0.215535
 H        -1.710204         0.890864         2.486833
 H        -2.136303         3.741739         1.120095
 H        -0.939198         4.641252         3.362593
 H        -0.717115         3.058089         3.850751
 H         0.982558         4.865579         2.152250
 H         1.627416         3.513733         3.238801
 H        -0.082362         3.142158        -0.275360
