19
Iteration:  1619
 O         0.360426         0.290870         0.711258
 C        -0.564853         1.299435         0.646609
 C        -1.966650         1.134071         0.316092
 C        -1.577666         1.567615         1.751064
 C        -1.384824         3.137287         1.558797
 C        -0.619346         3.648868         2.742064
 C         0.787507         3.265526         2.552640
 O         1.015318         3.000585         1.130204
 C        -0.237286         2.826589         0.468872
 H         1.063021         0.533993         1.413716
 H        -2.447110         1.789267        -0.407614
 H        -2.162917        -0.006067         0.165873
 H        -1.901049         1.036748         2.688340
 H        -2.245400         3.753626         1.300261
 H        -0.685023         4.758997         2.524612
 H        -1.074934         3.442640         3.797326
 H         1.530276         4.047542         2.817442
 H         1.045644         2.310851         2.956116
 H        -0.226905         3.218107        -0.524082
