19
Iteration:  4795charge 0 multiplicity 1
 O         0.334499         0.222633         0.308318
 C        -0.616197         1.175943         0.629245
 C        -1.972373         1.096433         0.251265
 C        -1.752774         1.635499         1.669404
 C        -1.292491         3.108759         1.647734
 C        -0.642947         3.572361         2.956147
 C         0.823275         3.821773         2.424647
 O         1.126308         2.854915         1.392191
 C        -0.186263         2.631244         0.684418
 H         1.269108         0.424669         0.545741
 H        -2.534280         1.764682        -0.491766
 H        -2.504357         0.133956         0.397962
 H        -2.187410         1.292585         2.537259
 H        -2.045769         3.794926         1.156495
 H        -1.155290         4.507264         3.380674
 H        -0.735697         2.720127         3.712669
 H         0.803924         4.929235         2.146154
 H         1.659105         3.641213         3.159185
 H        -0.110579         3.134672        -0.276614
