19
Iteration:  3438charge 0 multiplicity 1
 O         0.338771         0.130966         0.492568
 C        -0.578725         1.249414         0.716641
 C        -2.063754         1.168275         0.228203
 C        -1.827843         1.602759         1.618639
 C        -1.349569         2.992534         1.557931
 C        -0.607203         3.552291         2.801926
 C         0.914822         3.770577         2.485351
 O         1.123970         2.978948         1.311273
 C        -0.137084         2.700058         0.701771
 H         1.207526         0.308731         0.974132
 H        -2.569810         1.733604        -0.488963
 H        -2.452659         0.086370         0.164782
 H        -2.359690         1.352934         2.508270
 H        -1.937307         3.919756         1.164629
 H        -0.959096         4.385677         3.525498
 H        -0.642015         2.661749         3.507426
 H         0.920296         4.824390         2.116408
 H         1.546044         3.502277         3.274869
 H        -0.210998         3.126820        -0.303546
