19
Iteration:  1876charge 0 multiplicity 1
 O         0.374830         0.293307         0.665794
 C        -0.599311         1.278908         0.713404
 C        -1.998492         1.091449         0.204419
 C        -1.762814         1.527667         1.610406
 C        -1.409047         3.085988         1.637423
 C        -0.561921         3.673097         2.786143
 C         0.896105         3.435524         2.537839
 O         1.075820         3.005987         1.169991
 C        -0.227011         2.689024         0.592557
 H         1.227429         0.663389         0.743750
 H        -2.407232         1.823291        -0.492398
 H        -2.328067         0.089270         0.146302
 H        -2.224090         1.052435         2.416472
 H        -2.155801         3.906488         1.464294
 H        -0.763968         4.845254         2.839304
 H        -0.952459         3.282943         3.800419
 H         1.444856         4.396048         2.490210
 H         1.362966         2.765187         3.263960
 H        -0.312916         3.101551        -0.398975
