19
Iteration:  1041
 O         0.287050         0.212371         0.586286
 C        -0.540350         1.310020         0.720664
 C        -2.044224         1.119836         0.257753
 C        -1.575059         1.552450         1.730896
 C        -1.355124         3.068252         1.536075
 C        -0.647632         3.781765         2.730198
 C         0.816056         3.259130         2.538891
 O         1.073542         3.123001         1.182116
 C        -0.123663         2.739995         0.606413
 H         0.936584         0.362953         1.227669
 H        -2.597580         1.906925        -0.427390
 H        -2.434063         0.029341         0.258313
 H        -1.895511         0.995637         2.634390
 H        -2.137040         3.637495         1.029470
 H        -0.801567         4.884200         2.587499
 H        -1.150821         3.423031         3.686266
 H         1.414978         3.996294         3.102294
 H         0.836530         2.307055         3.122669
 H        -0.145026         3.216928        -0.339374
