19
Iteration:  3397charge 0 multiplicity 1
 O         0.252008         0.168015         0.670466
 C        -0.614743         1.298620         0.538285
 C        -2.011698         1.178633         0.133496
 C        -1.686973         1.548303         1.555178
 C        -1.286766         3.054265         1.668664
 C        -0.546236         3.511750         2.942208
 C         0.833608         3.802354         2.331507
 O         1.087179         2.797883         1.348884
 C        -0.165410         2.802705         0.649892
 H         0.970509         0.458047         1.230216
 H        -2.702548         1.780965        -0.467936
 H        -2.237761         0.056174         0.067693
 H        -1.970883         0.890750         2.381544
 H        -2.151000         3.606839         1.379815
 H        -1.138585         4.395035         3.321002
 H        -0.649295         2.877471         3.822090
 H         0.747337         4.837148         1.920162
 H         1.723201         3.910911         3.047630
 H        -0.126766         3.459800        -0.209200
