19
Iteration:  2970
 O         0.376759         0.199783         0.436110
 C        -0.701540         1.215330         0.665833
 C        -2.052795         1.263416         0.209786
 C        -1.773434         1.502717         1.742455
 C        -1.326654         3.074326         1.641946
 C        -0.576983         3.596590         2.792285
 C         0.857208         3.891367         2.369347
 O         1.095877         2.807900         1.437913
 C        -0.112553         2.601687         0.625458
 H         1.086229         0.606953         1.014418
 H        -2.410045         2.005536        -0.484149
 H        -2.363701         0.187224        -0.103770
 H        -2.163411         0.930873         2.626939
 H        -2.110411         3.718325         1.172986
 H        -1.176759         4.395306         3.314276
 H        -0.595442         2.905356         3.638327
 H         0.999261         4.877031         1.980208
 H         1.425880         3.539851         3.253677
 H         0.139212         3.053464        -0.328522
