19
Iteration:  1793charge 0 multiplicity 1
 O         0.369258         0.232321         0.523387
 C        -0.568184         1.276003         0.599132
 C        -2.093971         0.995190         0.449098
 C        -1.505109         1.618517         1.754178
 C        -1.378736         3.143766         1.510510
 C        -0.638886         3.861451         2.683814
 C         0.688278         3.109285         2.622673
 O         1.034865         3.192832         1.260629
 C        -0.145074         2.733421         0.493604
 H         1.171771         0.553364         0.857854
 H        -2.701355         1.527750        -0.403981
 H        -2.294096         0.008518         0.675413
 H        -1.555047         1.183851         2.674958
 H        -2.217435         3.740384         1.243454
 H        -0.386817         4.842706         2.479894
 H        -1.119025         3.816904         3.602351
 H         1.638909         3.487260         3.091595
 H         0.647916         2.036207         2.968430
 H         0.196492         3.255695        -0.462110
