19
Iteration:  1828charge 0 multiplicity 1
 O         0.284572         0.202593         0.543897
 C        -0.560649         1.328900         0.684613
 C        -1.929519         1.040442         0.311983
 C        -1.595743         1.634239         1.749728
 C        -1.441483         3.129811         1.554108
 C        -0.639893         3.746144         2.740976
 C         0.831969         3.298243         2.573143
 O         1.033983         3.062889         1.221267
 C        -0.157561         2.783087         0.525687
 H         1.116393         0.335484         0.999208
 H        -2.449651         1.509710        -0.560803
 H        -2.173306        -0.061714         0.480502
 H        -1.810395         1.084616         2.730881
 H        -2.333101         3.614413         1.210836
 H        -0.614442         4.819747         2.600258
 H        -1.153826         3.560777         3.706841
 H         1.536319         4.026642         2.943819
 H         0.990691         2.297964         3.096032
 H        -0.142285         3.139472        -0.504915
