19
Iteration:  1885charge 0 multiplicity 1
 O         0.310130         0.277077         0.686772
 C        -0.524731         1.324466         0.698366
 C        -1.976039         1.068175         0.197008
 C        -1.728403         1.542802         1.639903
 C        -1.357873         3.132718         1.585109
 C        -0.531920         3.676694         2.885469
 C         0.883874         3.460827         2.519691
 O         0.983990         2.958118         1.151128
 C        -0.237964         2.752823         0.566961
 H         1.143529         0.637141         0.896514
 H        -2.418424         1.589109        -0.660151
 H        -2.180851        -0.052245        -0.063660
 H        -2.042263         0.886022         2.546830
 H        -2.228616         3.699331         1.258326
 H        -0.658053         4.827613         2.921392
 H        -1.002498         3.136771         3.791173
 H         1.468017         4.348686         2.684846
 H         1.371767         2.683144         3.195068
 H        -0.334557         3.080434        -0.453503
