19
Iteration:  3160
 O         0.163195         0.065354         0.496065
 C        -0.571370         1.202556         0.659353
 C        -1.939071         1.127453         0.190341
 C        -1.860964         1.604972         1.579494
 C        -1.226515         3.054461         1.688939
 C        -0.612253         3.559192         2.927161
 C         0.814520         3.896128         2.423144
 O         1.140175         3.001651         1.321451
 C        -0.064630         2.637283         0.687096
 H         1.088017         0.469724         0.586785
 H        -2.260753         1.576476        -0.676488
 H        -2.386233         0.101720         0.102012
 H        -2.109107         0.881776         2.303673
 H        -1.977468         3.797250         1.287990
 H        -1.098208         4.405844         3.409579
 H        -0.616819         2.810467         3.849922
 H         0.596733         4.971099         2.024069
 H         1.692443         3.940347         3.109842
 H        -0.109564         3.078921        -0.307920
