19
Iteration:  4222charge 0 multiplicity 1
 O         0.316648         0.147541         0.586826
 C        -0.560163         1.267684         0.642228
 C        -2.043484         1.152010         0.170161
 C        -1.702958         1.624901         1.509578
 C        -1.294531         3.114122         1.634609
 C        -0.540875         3.483294         2.991829
 C         0.826846         3.874463         2.458521
 O         0.968584         2.938443         1.335082
 C        -0.102725         2.626458         0.605028
 H         0.307554        -0.301673        -0.263396
 H        -2.460589         1.754050        -0.546534
 H        -2.285700         0.096417         0.296309
 H        -1.938535         1.123720         2.499176
 H        -2.089254         3.743430         1.338192
 H        -1.113612         4.284708         3.596152
 H        -0.224028         2.837512         3.838181
 H         0.877584         4.907078         2.224289
 H         1.557968         3.416511         3.182262
 H        -0.029616         3.145076        -0.421416
