19
Iteration:   707charge 0 multiplicity 1
 O         0.404603         0.339461         0.745016
 C        -0.529578         1.312172         0.659810
 C        -1.938882         1.044270         0.331393
 C        -1.760593         1.691881         1.612232
 C        -1.386020         3.213828         1.549011
 C        -0.584295         3.653154         2.770467
 C         0.844946         3.161066         2.579429
 O         1.017996         2.937183         1.111503
 C        -0.253185         2.821815         0.505131
 H         1.234539         0.754835         0.851085
 H        -2.584794         1.598641        -0.467146
 H        -2.291018         0.026397         0.429092
 H        -2.221531         1.249744         2.451686
 H        -2.163947         3.962014         1.527400
 H        -0.578215         4.733574         2.851928
 H        -1.122965         3.352844         3.708440
 H         1.569070         3.872549         2.877501
 H         1.036646         2.200724         3.101164
 H        -0.195786         3.145508        -0.496572
