19
Iteration:  4020charge 0 multiplicity 1
 O         0.242687         0.054384         0.562183
 C        -0.559502         1.240144         0.687060
 C        -1.946677         1.176382         0.139742
 C        -1.821838         1.648819         1.640663
 C        -1.281422         3.023942         1.591918
 C        -0.570942         3.468100         3.020252
 C         0.781370         3.890713         2.405097
 O         1.083887         2.969168         1.305346
 C        -0.110243         2.653625         0.608182
 H         1.224593         0.182494         0.501044
 H        -2.375636         1.986734        -0.560278
 H        -2.395860         0.192394        -0.114114
 H        -2.236218         1.360326         2.679515
 H        -1.773058         3.906839         1.348714
 H        -1.105575         4.285758         3.435387
 H        -0.392306         2.522595         3.560833
 H         0.642779         5.083309         2.131930
 H         1.624643         3.789717         3.071181
 H        -0.179119         3.178685        -0.412538
