19
Iteration:  3482
 O         0.259499         0.121720         0.581109
 C        -0.542034         1.286216         0.526157
 C        -1.994924         1.100508         0.263928
 C        -1.698929         1.559746         1.604189
 C        -1.357968         3.121902         1.573441
 C        -0.591111         3.543234         2.891996
 C         0.855355         3.764695         2.420952
 O         1.050676         2.884009         1.370955
 C        -0.134207         2.821614         0.640910
 H         0.991725         0.246876         1.258397
 H        -2.461599         1.728246        -0.442189
 H        -2.352648         0.077129         0.065555
 H        -2.107444         0.910772         2.358142
 H        -2.289912         3.717929         1.123849
 H        -0.972084         4.527535         3.350677
 H        -0.579843         2.738366         3.681809
 H         1.082490         4.800767         2.034716
 H         1.483314         3.344460         3.144127
 H        -0.040855         3.533485        -0.233550
