19
Iteration:  1046charge 0 multiplicity 1
 O         0.281604         0.178694         0.585968
 C        -0.542908         1.297172         0.720706
 C        -2.016920         1.159285         0.281552
 C        -1.525522         1.573950         1.740571
 C        -1.379831         3.088475         1.549595
 C        -0.666958         3.768812         2.696718
 C         0.771321         3.242769         2.578962
 O         1.076609         3.104311         1.177183
 C        -0.133652         2.787828         0.553128
 H         0.997407         0.254075         1.339071
 H        -2.582849         1.790211        -0.292669
 H        -2.239152         0.134230         0.240267
 H        -1.792363         1.031838         2.654533
 H        -2.211727         3.530531         0.963260
 H        -0.683601         4.847616         2.664086
 H        -1.060055         3.349439         3.614523
 H         1.496764         3.920415         3.046836
 H         0.732375         2.303630         3.134937
 H        -0.300917         3.394317        -0.403790
