19
Iteration:  3529charge 0 multiplicity 1
 O         0.380719         0.196085         0.464725
 C        -0.597275         1.219638         0.597016
 C        -1.986510         1.168770         0.200564
 C        -1.844508         1.616441         1.639580
 C        -1.350184         3.056063         1.713032
 C        -0.608921         3.611617         2.882526
 C         0.821456         3.858358         2.383666
 O         1.129020         2.732366         1.442365
 C        -0.157156         2.674643         0.626900
 H         1.198971         0.658798         0.814227
 H        -2.478848         1.851846        -0.542316
 H        -2.404709         0.197795         0.027455
 H        -2.290957         1.202175         2.580673
 H        -2.025483         3.703071         1.170848
 H        -1.125213         4.527477         3.242951
 H        -0.637040         2.833837         3.693253
 H         0.776167         4.746692         1.814094
 H         1.679955         3.822793         3.089367
 H        -0.017850         3.216992        -0.285437
