19
Iteration:  1195charge 0 multiplicity 1
 O         0.358531         0.102400         0.506751
 C        -0.547453         1.225828         0.776355
 C        -1.966382         1.128956         0.341591
 C        -1.674695         1.705646         1.714987
 C        -1.274792         3.144193         1.545277
 C        -0.708543         3.776681         2.787633
 C         0.781034         3.278761         2.572240
 O         1.021454         3.229342         1.139230
 C        -0.118466         2.622324         0.548810
 H         1.195203         0.204364         0.866618
 H        -2.673096         1.801952        -0.350790
 H        -2.264158         0.085649         0.481838
 H        -2.139423         1.122402         2.451181
 H        -1.973632         3.811247         1.097859
 H        -0.950996         4.818670         2.906601
 H        -1.018575         3.294383         3.748557
 H         1.430388         3.937107         3.126390
 H         0.821605         2.229290         3.027638
 H        -0.240380         2.905404        -0.508961
