19
Iteration:  2496
 O         0.463168         0.500088         0.599485
 C        -0.588104         1.322506         0.692298
 C        -2.088021         0.993662         0.432837
 C        -1.786019         1.672933         1.719871
 C        -1.317603         3.109919         1.516733
 C        -0.624321         3.664915         2.691440
 C         0.782765         3.134151         2.589368
 O         1.130307         2.995992         1.183534
 C        -0.221489         2.740094         0.463514
 H         1.210195         1.172156         0.798236
 H        -2.571401         1.387426        -0.475832
 H        -2.342793         0.035721         0.598811
 H        -1.969420         1.270000         2.669752
 H        -2.140512         3.729288         1.135626
 H        -0.658588         4.770652         2.790971
 H        -1.069905         3.190944         3.653660
 H         1.591241         3.689851         3.011473
 H         0.816687         2.177266         3.145402
 H        -0.093399         3.088585        -0.501611
