19
Iteration:  4993charge 0 multiplicity 1
 O         0.282969         0.181084         0.312129
 C        -0.561497         1.228618         0.655373
 C        -1.959527         1.147838         0.192763
 C        -1.699147         1.572932         1.718880
 C        -1.293052         3.038338         1.654710
 C        -0.570486         3.591352         2.871852
 C         0.748992         3.907011         2.353278
 O         1.026512         2.803472         1.503882
 C        -0.159991         2.681212         0.689526
 H         1.173581         0.464889         0.631218
 H        -2.342727         2.021043        -0.356638
 H        -2.186409         0.055534        -0.034646
 H        -2.294792         1.048565         2.568486
 H        -2.171649         3.754191         1.438436
 H        -1.050820         4.293533         3.512742
 H        -0.415375         2.666252         3.528434
 H         0.779041         4.887158         1.824419
 H         1.692868         3.894319         3.126725
 H        -0.051489         3.240943        -0.297692
