19
Iteration:  4745charge 0 multiplicity 1
 O         0.183992         0.167438         0.386294
 C        -0.593571         1.327897         0.518497
 C        -2.108281         1.185629         0.178270
 C        -1.606494         1.409892         1.599871
 C        -1.291243         2.937876         1.774130
 C        -0.642470         3.622515         2.894851
 C         0.776542         3.929514         2.375706
 O         1.124291         2.833809         1.486137
 C        -0.001531         2.759592         0.691664
 H         0.685120        -0.068128         1.160937
 H        -2.586712         1.820876        -0.552262
 H        -2.237384         0.166193         0.060229
 H        -1.719612         0.667755         2.540456
 H        -2.118031         3.523489         1.399499
 H        -1.027002         4.581005         3.087408
 H        -0.532067         3.060417         3.808402
 H         0.685600         4.886000         1.904541
 H         1.586707         3.968951         3.089406
 H         0.085041         3.388044        -0.220673
