19
Iteration:  1218charge 0 multiplicity 1
 O         0.352776         0.076272         0.561566
 C        -0.508984         1.219307         0.674146
 C        -1.988389         1.080988         0.367095
 C        -1.645132         1.653228         1.725024
 C        -1.394967         3.129474         1.533588
 C        -0.644122         3.779562         2.747166
 C         0.821178         3.218835         2.562333
 O         1.008280         3.248162         1.181724
 C        -0.178507         2.789311         0.551725
 H         1.000797        -0.041171         1.370792
 H        -2.171310         1.839242        -0.547370
 H        -2.282862         0.099522         0.110777
 H        -2.094226         1.194075         2.539383
 H        -2.194790         3.739060         1.260768
 H        -0.509346         4.823689         2.713388
 H        -1.075868         3.593933         3.764156
 H         1.568953         3.874826         3.040876
 H         0.937108         2.152461         2.976752
 H        -0.338024         3.190072        -0.427974
