19
Iteration:  1212
 O         0.375483         0.053230         0.529209
 C        -0.472875         1.152693         0.672732
 C        -1.960839         1.125322         0.369400
 C        -1.678254         1.683813         1.739071
 C        -1.342092         3.107692         1.535498
 C        -0.647706         3.776512         2.785086
 C         0.762598         3.262497         2.589361
 O         0.997993         3.239337         1.149248
 C        -0.181731         2.793799         0.549964
 H         0.902351         0.085188         1.308375
 H        -2.084875         1.734291        -0.443021
 H        -2.527324         0.150433         0.251649
 H        -2.172904         1.343288         2.724999
 H        -2.210183         3.792575         1.191080
 H        -0.551020         4.920940         2.828814
 H        -1.153158         3.421360         3.680913
 H         1.702361         3.733879         2.943723
 H         0.809799         2.240718         2.916366
 H        -0.286550         3.172059        -0.525932
