19
Iteration:   851
 O         0.335132         0.337473         0.598049
 C        -0.624370         1.338852         0.639299
 C        -1.957219         0.942504         0.362673
 C        -1.673500         1.679740         1.620554
 C        -1.416080         3.160830         1.487431
 C        -0.574761         3.751649         2.729278
 C         0.855677         3.271179         2.564300
 O         1.050826         2.791266         1.280594
 C        -0.223727         2.899016         0.547076
 H         0.942946         0.563879         1.233546
 H        -2.565611         1.377567        -0.540800
 H        -1.915445        -0.179904         0.655638
 H        -1.940699         1.280616         2.672438
 H        -2.215909         3.861710         1.151389
 H        -0.622625         4.893419         2.649790
 H        -1.068642         3.488287         3.648541
 H         1.501491         4.109838         2.718379
 H         1.278003         2.506004         3.241563
 H        -0.053972         3.608372        -0.269515
