19
Iteration:  4289
 O         0.238168         0.004652         0.622619
 C        -0.604681         1.184664         0.618565
 C        -2.008091         1.194861         0.066191
 C        -1.685969         1.635625         1.558174
 C        -1.278020         2.997502         1.747223
 C        -0.498027         3.447815         2.974375
 C         0.758949         3.978192         2.380742
 O         1.069602         2.935086         1.321879
 C        -0.150114         2.771790         0.671717
 H         0.945537         0.250277        -0.010569
 H        -2.157816         1.938801        -0.667779
 H        -2.591873         0.291826        -0.007251
 H        -2.002528         1.028882         2.414930
 H        -1.922050         3.810394         1.498194
 H        -1.033717         4.231659         3.590332
 H        -0.442035         2.768773         3.799664
 H         0.743135         4.971270         1.864939
 H         1.529985         3.898934         3.161129
 H        -0.251884         3.332904        -0.318922
