19
Iteration:  4922
 O         0.267114         0.109996         0.580944
 C        -0.556132         1.281542         0.546944
 C        -2.012193         1.097000         0.185243
 C        -1.621253         1.583704         1.630456
 C        -1.297973         3.124888         1.655665
 C        -0.570091         3.415762         2.945470
 C         0.832431         3.763510         2.426131
 O         1.025722         2.937839         1.304694
 C        -0.219805         2.867450         0.579614
 H         1.025883         0.375608         1.151144
 H        -2.498137         1.791910        -0.436984
 H        -2.293151         0.050674         0.094647
 H        -1.970624         1.130902         2.495028
 H        -2.029295         3.816511         1.317836
 H        -1.128377         4.077069         3.636830
 H        -0.457636         2.539979         3.555512
 H         0.979612         4.902319         2.147005
 H         1.427972         3.571272         3.267403
 H        -0.251933         3.464290        -0.403848
