19
Iteration:  3802
 O         0.311493         0.183291         0.446775
 C        -0.578424         1.226497         0.658606
 C        -2.066751         1.146122         0.219538
 C        -1.790106         1.631913         1.609992
 C        -1.312490         3.017453         1.670681
 C        -0.629926         3.517355         2.866251
 C         0.812286         3.862270         2.365084
 O         1.108604         2.802746         1.420051
 C        -0.089721         2.758773         0.668700
 H         1.080705         0.418949         0.973575
 H        -2.233499         1.769694        -0.644692
 H        -2.291023         0.066066         0.239442
 H        -2.039579         1.075380         2.483959
 H        -2.111501         3.789381         1.393455
 H        -1.013504         4.482987         3.276465
 H        -0.533463         2.796740         3.774355
 H         0.733420         4.777655         1.703918
 H         1.621099         3.832747         3.113819
 H         0.075360         3.375787        -0.255572
