19
Iteration:  4880
 O         0.332620         0.305984         0.524501
 C        -0.599981         1.219081         0.725566
 C        -2.033563         1.099665         0.194537
 C        -1.885749         1.544685         1.672378
 C        -1.360631         3.073993         1.589314
 C        -0.537796         3.439395         2.842120
 C         0.906884         3.761068         2.494011
 O         1.147248         2.982255         1.224842
 C        -0.206550         2.693955         0.696282
 H         1.080982         0.744206         0.943604
 H        -2.385948         1.726254        -0.633411
 H        -2.213032         0.057684        -0.059316
 H        -2.412935         1.038604         2.376938
 H        -2.118221         3.859868         1.182312
 H        -1.008770         4.355040         3.347880
 H        -0.517684         2.578282         3.436090
 H         1.163949         4.762239         2.558634
 H         1.681980         3.151053         3.205769
 H        -0.189247         3.230114        -0.286156
