19
Iteration:  2427
 O         0.311105         0.136554         0.505785
 C        -0.521842         1.252235         0.744638
 C        -1.984301         1.123877         0.321819
 C        -1.700496         1.547434         1.717705
 C        -1.345752         3.039851         1.571078
 C        -0.577476         3.794518         2.696030
 C         0.848620         3.255568         2.623739
 O         1.020512         3.295657         1.193050
 C        -0.224564         2.723089         0.563010
 H         0.899434         0.121777         1.237417
 H        -2.325375         1.797950        -0.460155
 H        -2.467888         0.002940         0.240300
 H        -1.781643         0.784229         2.568224
 H        -2.152678         3.694943         1.298829
 H        -0.578983         4.860196         2.363923
 H        -1.132708         3.784657         3.652559
 H         1.528541         3.853885         3.186925
 H         1.092462         2.251443         2.959774
 H        -0.167997         3.201251        -0.457455
