19
Iteration:   401
 O         0.280051         0.354449         0.682184
 C        -0.658983         1.295974         0.666230
 C        -2.055545         1.078662         0.302320
 C        -1.711174         1.587126         1.680706
 C        -1.288814         3.061556         1.526925
 C        -0.608209         3.549333         2.721138
 C         0.926885         3.490405         2.575046
 O         1.126975         2.940651         1.173710
 C        -0.173740         2.766828         0.549270
 H         1.117676         0.754362         1.003623
 H        -2.660457         1.737726        -0.477921
 H        -2.351157         0.038178         0.293739
 H        -2.143766         1.160491         2.586950
 H        -2.093912         3.711077         1.019369
 H        -0.908798         4.617327         3.036496
 H        -0.968062         3.005120         3.660019
 H         1.440183         4.405237         2.596931
 H         1.274264         2.706137         3.395767
 H        -0.229905         3.282108        -0.439237
