19
Iteration:  4773
 O         0.301389         0.097346         0.284149
 C        -0.535156         1.226567         0.632206
 C        -2.019367         1.208477         0.254180
 C        -1.754549         1.499876         1.700158
 C        -1.290705         3.042859         1.671251
 C        -0.585948         3.628200         2.872995
 C         0.791845         3.935186         2.465597
 O         1.033542         2.802375         1.473195
 C        -0.117741         2.729632         0.624498
 H         1.235013         0.234547         0.495121
 H        -2.540920         1.892761        -0.507471
 H        -2.362402         0.149918         0.040022
 H        -2.080088         1.075216         2.573945
 H        -2.138431         3.686842         1.318579
 H        -1.015527         4.525982         3.426950
 H        -0.506063         2.844014         3.706341
 H         0.736169         4.987907         2.010913
 H         1.636389         3.829305         3.169605
 H        -0.034337         3.213315        -0.368239
