19
Iteration:  4761charge 0 multiplicity 1
 O         0.182804         0.165708         0.322253
 C        -0.589679         1.251082         0.563420
 C        -1.982419         1.157677         0.195961
 C        -1.611148         1.489565         1.681509
 C        -1.305719         2.980943         1.637811
 C        -0.613228         3.630743         2.935436
 C         0.835924         3.938461         2.381484
 O         1.103258         2.849390         1.504665
 C        -0.161155         2.669086         0.718390
 H         0.986632         0.329280         0.854520
 H        -2.461553         2.052679        -0.229492
 H        -2.399047         0.110808        -0.018740
 H        -1.940591         0.876574         2.410972
 H        -2.114206         3.639987         1.155798
 H        -1.319195         4.480415         3.262842
 H        -0.598449         2.786119         3.668495
 H         1.016145         4.900408         1.807669
 H         1.586396         3.938081         3.265240
 H        -0.053913         3.320071        -0.142393
