19
Iteration:  3154charge 0 multiplicity 1
 O         0.194936         0.027168         0.492472
 C        -0.605705         1.208602         0.720574
 C        -1.957275         1.108559         0.156099
 C        -1.795701         1.627210         1.586941
 C        -1.274657         3.072488         1.618572
 C        -0.549967         3.502433         2.925986
 C         0.786169         3.960367         2.438144
 O         1.149333         2.973812         1.323124
 C        -0.119697         2.677403         0.709916
 H         1.087504         0.384924         0.549731
 H        -2.419865         1.824562        -0.655783
 H        -2.252234         0.050608         0.062920
 H        -2.209026         1.049740         2.479687
 H        -2.037662         3.746778         1.261554
 H        -1.028131         4.387893         3.443846
 H        -0.529115         2.730446         3.643614
 H         0.721887         4.900578         1.934875
 H         1.514969         3.836782         3.238581
 H        -0.004637         3.275432        -0.247485
