19
Iteration:  2677charge 0 multiplicity 1
 O         0.268338         0.229213         0.432045
 C        -0.634970         1.252036         0.678395
 C        -2.026208         1.031888         0.177920
 C        -1.770777         1.544077         1.591896
 C        -1.260387         3.102823         1.686083
 C        -0.516038         3.626064         2.916737
 C         0.839686         3.934885         2.331441
 O         1.026067         2.756961         1.479042
 C        -0.135843         2.688227         0.652855
 H         1.124425         0.424354         0.906603
 H        -2.364647         1.788168        -0.524724
 H        -2.282966         0.042968         0.040221
 H        -2.053757         0.956865         2.380787
 H        -2.036130         3.806229         1.347219
 H        -1.180746         4.393623         3.285841
 H        -0.411030         2.841962         3.634695
 H         1.135784         4.818300         1.686057
 H         1.588463         3.864994         3.154010
 H        -0.030734         3.212002        -0.274213
