19
Iteration:   189
 O         0.450763         0.310098         0.552175
 C        -0.707759         1.231315         0.634009
 C        -2.201157         0.962524         0.216070
 C        -1.814613         1.631488         1.606904
 C        -1.303467         3.124911         1.574053
 C        -0.508158         3.726274         2.803791
 C         0.981465         3.594836         2.530259
 O         1.096642         2.833646         1.387273
 C        -0.268310         2.675457         0.603228
 H         1.334573         0.965129         0.529096
 H        -2.748373         1.397908        -0.565904
 H        -2.457858        -0.013727         0.366763
 H        -2.131437         1.091433         2.586483
 H        -1.983489         3.815314         1.134780
 H        -0.759859         4.793217         2.787835
 H        -0.814261         3.444506         3.789305
 H         1.470751         4.582130         2.411114
 H         1.491300         3.022354         3.219162
 H        -0.145742         3.328765        -0.273792
