19
Iteration:  4427charge 0 multiplicity 1
 O         0.304554         0.161289         0.500657
 C        -0.539227         1.229748         0.538978
 C        -1.961384         1.163410         0.263608
 C        -1.704152         1.503709         1.696609
 C        -1.330909         3.099179         1.627503
 C        -0.622731         3.647439         2.904406
 C         0.817481         3.809678         2.481236
 O         1.059057         2.848440         1.379438
 C        -0.191558         2.692033         0.592468
 H         0.831944         0.357956        -0.298150
 H        -2.359136         1.897047        -0.475846
 H        -2.246221         0.199290        -0.065125
 H        -2.189040         1.107724         2.573347
 H        -2.226736         3.686734         1.309651
 H        -1.041469         4.468453         3.389745
 H        -0.660628         2.876738         3.658821
 H         1.075687         4.829266         2.207158
 H         1.476230         3.563909         3.361987
 H         0.062492         3.203168        -0.361100
