19
Iteration:   633
 O         0.369045         0.192814         0.632753
 C        -0.525544         1.244920         0.731165
 C        -1.982100         1.124972         0.372406
 C        -1.614952         1.672197         1.729593
 C        -1.334169         3.173979         1.483503
 C        -0.605036         3.790426         2.770145
 C         0.739726         3.088080         2.637402
 O         0.991185         3.150984         1.121800
 C        -0.193431         2.754731         0.439236
 H         1.224251         0.513316         0.978461
 H        -2.507355         1.820082        -0.384477
 H        -2.427233         0.129443         0.365584
 H        -1.983055         1.074831         2.509683
 H        -2.043880         3.842446         0.995050
 H        -0.556492         4.939519         2.999550
 H        -1.099669         3.299481         3.648121
 H         1.508053         3.643245         3.086183
 H         0.699967         2.033206         2.993725
 H        -0.240073         3.117762        -0.597407
