19
Iteration:   287
 O         0.119381         0.030897         0.381734
 C        -0.601464         1.174663         0.713029
 C        -1.945565         1.182030         0.188509
 C        -1.766367         1.590765         1.635034
 C        -1.325717         3.032966         1.696312
 C        -0.594576         3.628676         2.924824
 C         0.855457         4.009048         2.317853
 O         1.190333         2.925027         1.406317
 C        -0.083714         2.625041         0.697578
 H         0.797114        -0.152804         1.082562
 H        -2.209486         1.816167        -0.596881
 H        -2.285752         0.165571         0.069681
 H        -2.471450         1.151530         2.419170
 H        -2.024029         3.695955         1.306642
 H        -1.075310         4.401920         3.528274
 H        -0.363541         2.823007         3.633073
 H         0.871087         4.889613         1.725581
 H         1.563799         4.093705         3.074996
 H        -0.064287         2.991973        -0.295796
