19
Iteration:  2311
 O         0.432372         0.283475         0.506623
 C        -0.547987         1.298872         0.650139
 C        -1.977371         1.011024         0.338020
 C        -1.714719         1.656475         1.719131
 C        -1.413026         3.124614         1.622571
 C        -0.624333         3.814070         2.701310
 C         0.805519         3.285531         2.580528
 O         1.031279         2.916355         1.192073
 C        -0.227130         2.789589         0.598437
 H         1.246127         0.569673         0.978000
 H        -2.485771         1.685851        -0.345194
 H        -2.213017        -0.124802         0.184457
 H        -1.884613         1.185578         2.731960
 H        -2.366816         3.557954         1.234758
 H        -0.575270         4.876707         2.532036
 H        -0.828034         3.634977         3.808541
 H         1.582398         3.985601         2.943508
 H         0.905706         2.406126         3.238916
 H        -0.260720         3.361468        -0.382179
