19
Iteration:  4196
 O         0.235768         0.207125         0.588281
 C        -0.554333         1.289583         0.616575
 C        -2.070129         1.096472         0.253217
 C        -1.696207         1.454757         1.583825
 C        -1.339892         3.086222         1.578294
 C        -0.659682         3.517265         2.894326
 C         0.906898         3.775869         2.470551
 O         1.164809         2.961034         1.291783
 C        -0.122778         2.752758         0.727261
 H         0.419127        -0.245680        -0.248067
 H        -2.313830         1.914583        -0.504746
 H        -2.257002         0.079293        -0.037898
 H        -2.209149         1.070492         2.390801
 H        -2.068687         3.699508         1.039893
 H        -0.959654         4.456413         3.284612
 H        -0.703217         2.948913         3.819695
 H         0.837817         4.872815         2.224205
 H         1.605949         3.580612         3.273891
 H        -0.171590         3.351290        -0.170680
