19
Iteration:  4464charge 0 multiplicity 1
 O         0.227399         0.136292         0.516253
 C        -0.608969         1.279012         0.464827
 C        -2.055458         1.102985         0.197624
 C        -1.646497         1.532809         1.622467
 C        -1.226697         3.015699         1.693811
 C        -0.662416         3.599080         2.960154
 C         0.772243         3.883553         2.468726
 O         1.179308         2.943978         1.468111
 C        -0.092251         2.727447         0.567108
 H         0.416452        -0.565216        -0.134006
 H        -2.598749         1.846782        -0.308687
 H        -2.388018         0.058364         0.018790
 H        -1.964031         0.785346         2.395250
 H        -2.015164         3.692933         1.386912
 H        -1.222205         4.565340         3.277610
 H        -0.660935         2.759240         3.665438
 H         0.828910         4.927337         2.066120
 H         1.582171         3.894403         3.236532
 H        -0.087569         3.160971        -0.408388
