19
Iteration:   817charge 0 multiplicity 1
 O         0.428536         0.252852         0.494255
 C        -0.630229         1.153577         0.668219
 C        -2.169924         1.096046         0.361615
 C        -1.683921         1.671760         1.681977
 C        -1.333603         3.094711         1.475680
 C        -0.645015         3.798482         2.755271
 C         0.857979         3.421960         2.630882
 O         1.115915         2.920370         1.318642
 C        -0.115471         2.695559         0.532148
 H         1.219008         0.863696         0.637748
 H        -2.711421         1.713098        -0.422732
 H        -2.617964         0.078583         0.365302
 H        -2.281437         1.178992         2.494813
 H        -2.192464         3.725761         1.155771
 H        -0.749221         4.878441         2.678231
 H        -1.016351         3.490304         3.739646
 H         1.414071         4.321170         2.737140
 H         1.201489         2.645181         3.351091
 H        -0.176455         3.239179        -0.381602
