19
Iteration:  4319charge 0 multiplicity 1
 O         0.173841         0.124751         0.537535
 C        -0.640404         1.269223         0.704810
 C        -1.954374         1.150478         0.122567
 C        -1.806057         1.517332         1.639521
 C        -1.291279         2.981353         1.613300
 C        -0.495835         3.440991         2.912092
 C         0.823794         3.933922         2.444732
 O         1.129519         2.994194         1.294219
 C        -0.124783         2.709348         0.653718
 H         1.057641         0.447368         0.763118
 H        -2.220378         2.050148        -0.402917
 H        -2.273051         0.151092        -0.169921
 H        -2.060922         1.055622         2.632847
 H        -1.934771         3.753030         1.159644
 H        -1.043717         4.265982         3.522863
 H        -0.415295         2.558506         3.658342
 H         0.651231         4.972320         2.064933
 H         1.531023         3.723341         3.317407
 H        -0.131115         3.177865        -0.310875
