19
Iteration:  2044
 O         0.433495         0.395866         0.512635
 C        -0.620238         1.274730         0.626114
 C        -1.986174         0.853730         0.399686
 C        -1.764747         1.694153         1.599183
 C        -1.366947         3.275288         1.536558
 C        -0.622751         3.709560         2.877434
 C         0.835746         3.311004         2.651078
 O         1.021430         2.851759         1.192497
 C        -0.178004         2.777590         0.534095
 H         1.261077         0.973596         0.640241
 H        -2.436622         1.273578        -0.464828
 H        -2.171951        -0.252994         0.555903
 H        -2.027794         1.203982         2.652885
 H        -2.084429         4.061205         1.120474
 H        -0.785596         4.866817         2.761308
 H        -1.067512         3.436348         3.862186
 H         1.613177         4.087012         2.701592
 H         1.101792         2.509767         3.326156
 H        -0.095203         3.223517        -0.500215
