19
Iteration:  1965
 O         0.386741         0.083313         0.565984
 C        -0.455464         1.270361         0.718618
 C        -1.928390         1.090961         0.270363
 C        -1.724536         1.609263         1.721997
 C        -1.404454         3.156603         1.693772
 C        -0.634635         3.833444         2.797517
 C         0.820520         3.134550         2.559617
 O         0.978379         3.202690         1.152643
 C        -0.214281         2.791627         0.520684
 H         1.275129         0.332909         0.533199
 H        -2.474641         1.675166        -0.427656
 H        -2.167219         0.051627         0.151623
 H        -1.987795         1.178151         2.640603
 H        -2.313659         3.633499         1.267356
 H        -0.543653         4.950980         2.352365
 H        -1.187779         3.905287         3.779659
 H         1.692082         3.758817         2.877516
 H         0.831566         2.151448         3.018574
 H        -0.320497         3.245938        -0.447910
