19
Iteration:  2484
 O         0.516177         0.463355         0.635141
 C        -0.676075         1.294949         0.628794
 C        -2.140093         0.986554         0.396596
 C        -1.679943         1.633032         1.724276
 C        -1.379184         3.163383         1.426963
 C        -0.592416         3.658324         2.764913
 C         0.884733         3.174600         2.583317
 O         1.056951         2.976784         1.232483
 C        -0.225621         2.749817         0.501348
 H         1.367455         1.004435         0.713712
 H        -2.836989         1.653455        -0.155544
 H        -2.225120        -0.074817         0.303724
 H        -2.067045         1.271320         2.625772
 H        -2.019592         3.943754         1.026744
 H        -0.661371         4.762764         2.666892
 H        -1.216014         3.373875         3.723381
 H         1.450436         3.937355         3.009376
 H         1.017057         2.160342         3.006824
 H        -0.121189         3.099527        -0.485828
