19
Iteration:  3034
 O         0.294703         0.230257         0.538744
 C        -0.628622         1.249857         0.605786
 C        -2.085585         1.098176         0.277531
 C        -1.677703         1.590769         1.682177
 C        -1.274539         3.073915         1.531605
 C        -0.639147         3.510317         2.845991
 C         0.854528         3.693701         2.463892
 O         1.105303         2.930819         1.333340
 C        -0.100528         2.778460         0.583772
 H         0.715960         0.472012         1.431427
 H        -2.630409         1.789233        -0.431829
 H        -2.291110        -0.095184         0.158508
 H        -2.093994         1.000919         2.556570
 H        -2.040238         3.792167         1.179291
 H        -1.037003         4.493041         3.226900
 H        -0.763875         2.776858         3.571636
 H         0.992536         4.829835         2.258736
 H         1.630157         3.247000         3.211285
 H        -0.108848         3.269448        -0.375789
