19
Iteration:  3597
 O         0.203762         0.075153         0.478880
 C        -0.580417         1.215726         0.589210
 C        -2.001248         1.137534         0.130429
 C        -1.620355         1.542432         1.675780
 C        -1.304202         2.998201         1.586690
 C        -0.615680         3.636240         2.934705
 C         0.860513         3.916818         2.504796
 O         1.064408         2.927072         1.401368
 C        -0.126789         2.722998         0.592052
 H         0.736672         0.054424         1.309533
 H        -2.469281         1.989539        -0.477080
 H        -2.471053         0.100717        -0.235095
 H        -2.004357         0.951134         2.487146
 H        -2.136783         3.600679         1.294473
 H        -1.014394         4.611664         3.226387
 H        -0.625931         2.793092         3.617636
 H         0.991166         4.922913         2.080392
 H         1.628223         3.624836         3.339292
 H        -0.115701         3.365428        -0.258515
