19
Iteration:  4557charge 0 multiplicity 1
 O         0.172505         0.137174         0.678120
 C        -0.556503         1.288360         0.611959
 C        -2.029201         1.155279         0.153776
 C        -1.639449         1.500276         1.540312
 C        -1.307006         3.055343         1.671061
 C        -0.564179         3.431177         2.921005
 C         0.810945         3.846189         2.446062
 O         1.086239         2.985378         1.322931
 C        -0.149126         2.757250         0.639188
 H         0.882322         0.251738         0.047665
 H        -2.509180         1.957560        -0.463060
 H        -2.194789         0.136226        -0.260300
 H        -1.849145         0.814503         2.330555
 H        -2.064455         3.786073         1.316427
 H        -1.038079         4.203320         3.386582
 H        -0.395277         2.521073         3.511780
 H         0.862462         4.885791         2.028109
 H         1.643458         3.795410         3.137446
 H        -0.116932         3.374218        -0.207542
