19
Iteration:  3632
 O         0.300075         0.175567         0.523306
 C        -0.647486         1.171285         0.664719
 C        -1.973315         1.151956         0.128812
 C        -1.768939         1.567708         1.672372
 C        -1.316616         3.014458         1.587863
 C        -0.581339         3.532131         2.914254
 C         0.815781         3.787436         2.417207
 O         1.126958         2.904037         1.348026
 C        -0.129774         2.748272         0.690471
 H         1.033218         0.727846         0.812423
 H        -2.243834         1.944610        -0.720285
 H        -2.388151         0.081807         0.035055
 H        -2.399051         1.406840         2.552329
 H        -2.097135         3.645554         1.164370
 H        -1.013427         4.490721         3.234487
 H        -0.823485         3.006593         3.812527
 H         0.913670         4.755582         1.978193
 H         1.680130         3.765031         3.138062
 H        -0.120881         3.305498        -0.220702
