19
Iteration:  1469charge 0 multiplicity 1
 O         0.450218         0.255582         0.520813
 C        -0.522871         1.239048         0.630627
 C        -2.016225         1.023297         0.348360
 C        -1.847458         1.635624         1.706315
 C        -1.351600         3.105455         1.564368
 C        -0.568692         3.766237         2.773138
 C         0.848950         3.416065         2.561191
 O         1.002545         2.945690         1.229268
 C        -0.193598         2.765126         0.603342
 H         1.278306         0.484730         0.893643
 H        -2.501890         1.583083        -0.425377
 H        -2.378467        -0.040959         0.233977
 H        -2.417351         1.216505         2.609039
 H        -2.197956         3.761536         1.167568
 H        -0.751028         4.809793         2.603347
 H        -0.968605         3.512847         3.776537
 H         1.558180         4.216849         2.636528
 H         1.155137         2.665526         3.304613
 H        -0.050168         3.255761        -0.419106
