19
Iteration:  1059charge 0 multiplicity 1
 O         0.275049         0.108321         0.584033
 C        -0.462539         1.330138         0.566153
 C        -1.912997         1.113173         0.443821
 C        -1.547738         1.645253         1.741664
 C        -1.357796         3.124008         1.523548
 C        -0.682416         3.777641         2.720079
 C         0.714054         3.178576         2.644277
 O         1.039975         3.090295         1.191903
 C        -0.221126         2.850658         0.452834
 H         0.881123         0.144383         1.274922
 H        -2.362749         1.838397        -0.201894
 H        -2.192721         0.147440         0.252115
 H        -1.655964         1.144704         2.644070
 H        -2.319218         3.724174         1.406791
 H        -0.713940         4.921225         2.620780
 H        -1.193438         3.599525         3.626305
 H         1.520086         3.782556         3.092243
 H         0.833345         2.143672         3.040045
 H        -0.040045         3.244364        -0.653410
