19
Iteration:   938charge 0 multiplicity 1
 O         0.313859         0.218238         0.632493
 C        -0.575005         1.249944         0.681365
 C        -1.977492         0.975001         0.297119
 C        -1.658585         1.642691         1.620882
 C        -1.301703         3.169189         1.565301
 C        -0.595692         3.743991         2.772322
 C         0.831050         3.199021         2.601033
 O         1.039364         3.179755         1.145539
 C        -0.195278         2.802252         0.535747
 H         0.855233         0.486421         1.500315
 H        -2.614001         1.513269        -0.410933
 H        -2.248241        -0.112865         0.322694
 H        -2.071961         1.131118         2.555353
 H        -2.156960         3.824750         1.230425
 H        -0.593498         4.858227         2.852950
 H        -1.176875         3.507786         3.632039
 H         1.647856         3.719237         3.055088
 H         0.673855         2.195240         3.105852
 H        -0.139698         3.230851        -0.553331
