19
Iteration:  4224
 O         0.307901         0.157388         0.591688
 C        -0.544598         1.260297         0.637239
 C        -2.046043         1.153547         0.180295
 C        -1.691768         1.623443         1.509519
 C        -1.290223         3.115425         1.631590
 C        -0.549677         3.474812         3.011016
 C         0.831182         3.875651         2.455736
 O         0.962714         2.934289         1.332338
 C        -0.105702         2.628579         0.611905
 H         0.304391        -0.312314        -0.286365
 H        -2.426941         1.807089        -0.583739
 H        -2.266896         0.067323         0.256609
 H        -1.985403         1.103710         2.480548
 H        -2.100005         3.811959         1.297640
 H        -1.068111         4.315955         3.575717
 H        -0.245538         2.783349         3.794036
 H         0.843277         4.912541         2.164379
 H         1.563961         3.466101         3.140321
 H        -0.035886         3.093956        -0.431564
