19
Iteration:  3319charge 0 multiplicity 1
 O         0.211069         0.131049         0.543367
 C        -0.588471         1.258670         0.581182
 C        -2.050334         1.105850         0.196138
 C        -1.698635         1.519831         1.604069
 C        -1.298001         3.099158         1.646482
 C        -0.597380         3.546226         2.844252
 C         0.954528         3.856575         2.495799
 O         1.043355         2.955774         1.340505
 C        -0.118860         2.701304         0.669227
 H         1.073168         0.138381         0.999826
 H        -2.433809         1.757447        -0.624574
 H        -2.247928        -0.024962        -0.043850
 H        -2.112818         1.082892         2.495303
 H        -1.983025         3.761245         1.127822
 H        -1.191586         4.487930         3.235856
 H        -0.589337         2.854057         3.708642
 H         0.981859         4.898202         2.075204
 H         1.528725         3.530558         3.404489
 H        -0.181545         3.166946        -0.331944
