19
Iteration:   257
 O         0.171581         0.076056         0.496215
 C        -0.619077         1.233978         0.611144
 C        -2.120529         1.158558         0.280134
 C        -1.708058         1.546686         1.621639
 C        -1.265056         3.018838         1.598791
 C        -0.606165         3.650773         2.861194
 C         0.870420         3.872359         2.463180
 O         1.140676         2.950863         1.392223
 C        -0.038778         2.655376         0.577318
 H         0.988232         0.291647         0.860987
 H        -2.686507         1.793074        -0.382040
 H        -2.254155         0.041005         0.143071
 H        -1.983042         1.060567         2.551913
 H        -1.990803         3.784564         1.143791
 H        -1.152475         4.508472         3.283276
 H        -0.633673         2.934895         3.726575
 H         1.091927         4.908511         2.099284
 H         1.530658         3.664076         3.323331
 H         0.089055         3.033405        -0.492902
