19
Iteration:  4614charge 0 multiplicity 1
 O         0.337999         0.237909         0.642787
 C        -0.637225         1.222500         0.629400
 C        -1.985655         1.104677         0.136362
 C        -1.853816         1.600047         1.577242
 C        -1.378457         3.040225         1.673169
 C        -0.554026         3.422913         2.960499
 C         0.925410         3.707261         2.522558
 O         1.097808         3.007796         1.194281
 C        -0.165552         2.773040         0.559162
 H         0.991926         0.750690         1.202299
 H        -2.302239         1.798506        -0.591868
 H        -2.371480         0.086196        -0.004424
 H        -2.379160         1.037244         2.488452
 H        -2.246676         3.745706         1.418492
 H        -0.935603         4.220048         3.526278
 H        -0.527013         2.660861         3.690909
 H         1.008865         4.738293         2.121992
 H         1.887790         3.419675         3.086666
 H        -0.156998         3.258682        -0.402237
