19
Iteration:  2831charge 0 multiplicity 1
 O         0.341653         0.294776         0.679214
 C        -0.660467         1.249276         0.594424
 C        -2.097472         1.045482         0.130384
 C        -1.757731         1.609006         1.550213
 C        -1.302127         3.109037         1.642385
 C        -0.537389         3.493689         2.884980
 C         0.935049         3.761659         2.499712
 O         1.056794         2.842189         1.283935
 C        -0.178362         2.776878         0.588647
 H         0.867400         0.751401         1.363425
 H        -2.626110         1.485247        -0.699723
 H        -2.384908        -0.061512         0.119558
 H        -1.886656         1.003426         2.550155
 H        -2.047002         3.837493         1.278947
 H        -1.057623         4.267823         3.482564
 H        -0.640937         2.547173         3.546466
 H         1.038434         4.770570         2.119844
 H         1.778323         3.400088         3.110511
 H        -0.084071         3.362529        -0.338798
