19
Iteration:   448
 O         0.382839         0.256716         0.608672
 C        -0.568679         1.281949         0.732442
 C        -1.924247         1.075254         0.295017
 C        -1.656922         1.671673         1.728095
 C        -1.400026         3.114439         1.616054
 C        -0.539485         3.842052         2.651073
 C         0.807852         3.072823         2.566974
 O         0.984632         3.127143         1.170542
 C        -0.242357         2.740550         0.580286
 H         1.197173         0.575465         0.883511
 H        -2.435202         1.591840        -0.517757
 H        -2.301434         0.019794         0.451372
 H        -2.135819         1.140286         2.579511
 H        -2.267147         3.837161         1.278674
 H        -0.591900         4.916871         2.476114
 H        -0.952130         3.740565         3.655016
 H         1.690668         3.529919         3.027324
 H         0.634726         1.979332         2.811786
 H        -0.279763         3.048747        -0.519881
