19
Iteration:  4143charge 0 multiplicity 1
 O         0.310823         0.105853         0.556400
 C        -0.599275         1.290397         0.603836
 C        -2.048212         1.155241         0.151671
 C        -1.721338         1.519192         1.596602
 C        -1.307238         3.098142         1.692906
 C        -0.675346         3.644406         2.929009
 C         0.865114         3.751876         2.428948
 O         1.099411         2.894563         1.355255
 C        -0.146002         2.702330         0.637658
 H         1.059823         0.286003        -0.044005
 H        -2.757374         1.718832        -0.417458
 H        -2.318519         0.125461         0.086924
 H        -1.807971         0.913110         2.444116
 H        -2.047334         3.693703         1.269337
 H        -0.941471         4.680089         3.252453
 H        -0.679419         2.998678         3.853514
 H         1.064884         4.826027         2.239875
 H         1.621796         3.683014         3.261617
 H        -0.021958         3.217899        -0.382090
