19
Iteration:  1672
 O         0.303198         0.060554         0.552780
 C        -0.507445         1.195327         0.746985
 C        -1.904196         1.093822         0.350754
 C        -1.802043         1.643743         1.676059
 C        -1.340086         3.114052         1.532570
 C        -0.602608         3.737690         2.770059
 C         0.837473         3.273257         2.581220
 O         0.997908         3.351056         1.148670
 C        -0.150681         2.706278         0.578544
 H         1.261450         0.208107         0.918310
 H        -2.426345         1.715460        -0.429766
 H        -2.343937         0.009495         0.537359
 H        -2.173811         1.304986         2.675050
 H        -2.048029         3.768110         1.089266
 H        -0.830227         4.789687         2.671620
 H        -0.969709         3.390631         3.717589
 H         1.723858         3.927708         2.913953
 H         1.020026         2.210731         2.967371
 H        -0.247458         3.026493        -0.490139
