19
Iteration:  4498charge 0 multiplicity 1
 O         0.285287         0.180430         0.481270
 C        -0.569890         1.191703         0.690199
 C        -1.888645         1.242121         0.182448
 C        -1.740073         1.525841         1.673032
 C        -1.343765         3.012919         1.678486
 C        -0.577808         3.512653         2.868960
 C         0.796088         3.894969         2.339180
 O         1.112885         2.896092         1.454034
 C        -0.116070         2.698141         0.630872
 H        -0.015625        -0.247920        -0.345458
 H        -2.390007         2.042501        -0.406368
 H        -2.157035         0.176258         0.009409
 H        -2.602003         1.105812         2.283167
 H        -2.008934         3.815091         1.379379
 H        -1.226736         4.158317         3.596249
 H        -0.510706         2.671780         3.620162
 H         0.616301         4.896317         1.869065
 H         1.448628         4.006870         3.212431
 H        -0.079441         3.301603        -0.297824
