19
Iteration:   841
 O         0.332912         0.358399         0.547633
 C        -0.588754         1.315092         0.587284
 C        -1.948929         0.921887         0.362302
 C        -1.768185         1.744064         1.680930
 C        -1.316749         3.210207         1.513831
 C        -0.629037         3.775554         2.730136
 C         0.890069         3.345879         2.596982
 O         1.028287         2.796775         1.291437
 C        -0.196636         2.733928         0.566349
 H         1.083277         0.630393         1.042057
 H        -2.674664         1.301017        -0.526018
 H        -2.110766        -0.240477         0.414126
 H        -1.849501         1.036228         2.549334
 H        -2.044827         3.937990         1.092175
 H        -0.733942         4.944930         2.800331
 H        -0.975583         3.395658         3.684268
 H         1.566830         4.181473         2.694346
 H         1.110710         2.558074         3.329372
 H        -0.303409         3.311050        -0.329982
