19
Iteration:   597
 O         0.174428         0.121960         0.487964
 C        -0.564098         1.298907         0.674622
 C        -1.996175         1.008462         0.375037
 C        -1.652339         1.535813         1.716839
 C        -1.329555         3.100157         1.441644
 C        -0.591924         3.777580         2.667077
 C         0.831488         3.301947         2.717337
 O         1.137868         3.188097         1.232083
 C        -0.187430         2.871452         0.574483
 H         0.947760        -0.019473         1.072463
 H        -2.547589         1.568468        -0.473243
 H        -2.147074        -0.124744         0.569998
 H        -1.933126         1.114773         2.714532
 H        -2.124265         3.651977         1.026494
 H        -0.520508         4.871321         2.587887
 H        -1.153934         3.497866         3.630945
 H         1.500272         4.100962         3.017512
 H         1.122355         2.423930         3.322694
 H        -0.112057         3.327468        -0.369832
