19
Iteration:  4770
 O         0.277192         0.112614         0.296100
 C        -0.552329         1.233966         0.611451
 C        -2.003099         1.203390         0.228387
 C        -1.731466         1.483694         1.700215
 C        -1.284120         3.029971         1.661791
 C        -0.587015         3.635397         2.890967
 C         0.795840         3.952064         2.448936
 O         1.054931         2.801742         1.483107
 C        -0.143780         2.717428         0.634598
 H         1.209799         0.180124         0.541270
 H        -2.525214         1.943109        -0.372720
 H        -2.352323         0.142345         0.051075
 H        -2.060270         1.037736         2.622317
 H        -2.173202         3.665101         1.261328
 H        -1.086374         4.537345         3.393499
 H        -0.537910         2.822189         3.597001
 H         0.779002         4.952389         2.035811
 H         1.698468         3.856322         3.214173
 H        -0.044946         3.248233        -0.294279
