19
Iteration:  2193charge 0 multiplicity 1
 O         0.452149         0.452616         0.668423
 C        -0.651214         1.282094         0.639055
 C        -1.984766         1.019435         0.168635
 C        -1.782206         1.543201         1.658945
 C        -1.318656         3.066415         1.639751
 C        -0.541992         3.792737         2.780069
 C         0.879126         3.310595         2.525714
 O         1.025666         2.868074         1.244526
 C        -0.296245         2.754719         0.565438
 H         1.199276         1.051205         0.799091
 H        -2.605939         1.731081        -0.399797
 H        -2.279591        -0.163436         0.185705
 H        -2.138360         0.838171         2.489119
 H        -2.079651         3.781550         1.343209
 H        -0.651177         4.867644         2.637824
 H        -1.041839         3.529659         3.704157
 H         1.586101         4.187656         2.709502
 H         1.224020         2.543620         3.242686
 H        -0.354572         3.367583        -0.416767
