19
Iteration:  4204charge 0 multiplicity 1
 O         0.295089         0.159163         0.588134
 C        -0.590858         1.223974         0.588512
 C        -2.055121         1.088796         0.197221
 C        -1.738499         1.544562         1.639127
 C        -1.301295         3.050133         1.622171
 C        -0.629053         3.519428         2.881625
 C         0.904662         3.808663         2.491390
 O         1.155885         2.968836         1.346289
 C        -0.165367         2.820272         0.647745
 H         0.313965        -0.251476        -0.282863
 H        -2.392855         1.889495        -0.597634
 H        -2.399293         0.013541         0.123055
 H        -2.250746         0.964303         2.454694
 H        -2.083796         3.827687         1.227223
 H        -0.979594         4.463828         3.290952
 H        -0.677785         2.678148         3.586095
 H         0.910635         4.915985         2.086113
 H         1.557900         3.533715         3.292090
 H        -0.149070         3.342612        -0.300503
