19
Iteration:  4813
 O         0.316217         0.286669         0.432701
 C        -0.649646         1.333649         0.631691
 C        -2.084066         1.060379         0.266634
 C        -1.764383         1.528693         1.660342
 C        -1.325119         3.027052         1.610969
 C        -0.560381         3.527116         2.879676
 C         0.855664         3.797963         2.496353
 O         1.088190         2.841449         1.337794
 C        -0.101992         2.751197         0.611769
 H         1.021391         0.506553         1.100376
 H        -2.492818         1.690356        -0.463836
 H        -2.088985        -0.039743         0.059225
 H        -2.125506         0.910382         2.496545
 H        -2.079918         3.784668         1.217767
 H        -1.088958         4.442682         3.250753
 H        -0.552154         2.763075         3.597679
 H         1.117167         4.712057         2.051757
 H         1.555622         3.633475         3.434305
 H        -0.029150         3.327318        -0.331468
