19
Iteration:  3089charge 0 multiplicity 1
 O         0.301943         0.214876         0.612001
 C        -0.625234         1.246119         0.601548
 C        -1.951540         1.114967         0.107773
 C        -1.853517         1.582409         1.552460
 C        -1.399600         3.020661         1.671922
 C        -0.484700         3.550039         2.949335
 C         0.919357         3.863047         2.389546
 O         1.063813         2.811628         1.312951
 C        -0.173269         2.767064         0.676503
 H         1.014066         0.484479         1.272783
 H        -2.469750         1.642258        -0.750579
 H        -2.348935         0.031557         0.095761
 H        -2.088790         0.873407         2.412179
 H        -2.097491         3.804886         1.344949
 H        -0.947610         4.418111         3.469130
 H        -0.374788         2.858714         3.720232
 H         0.969422         4.919339         2.019703
 H         1.755792         3.631047         3.133876
 H        -0.293601         3.270804        -0.274011
