19
Iteration:  4716
 O         0.285887         0.142530         0.344425
 C        -0.576994         1.203157         0.573929
 C        -2.035410         1.194536         0.169076
 C        -1.617730         1.513852         1.649173
 C        -1.310190         3.063942         1.704341
 C        -0.613231         3.585122         2.923298
 C         0.816978         3.922816         2.388819
 O         1.004325         2.862113         1.458204
 C        -0.124785         2.689887         0.718920
 H         0.813670        -0.130807         1.124892
 H        -2.226895         1.926405        -0.616477
 H        -2.437558         0.166188         0.095818
 H        -2.030022         0.968633         2.498491
 H        -2.108711         3.728675         1.205820
 H        -1.067172         4.540499         3.409493
 H        -0.455605         2.751590         3.628619
 H         0.888051         4.983130         1.998409
 H         1.726355         3.752473         3.137903
 H        -0.061356         3.249167        -0.223885
