19
Iteration:  4347
 O         0.400721         0.133250         0.530692
 C        -0.615443         1.272866         0.559483
 C        -2.041026         1.147490         0.217667
 C        -1.761151         1.598177         1.589158
 C        -1.355047         3.081323         1.617990
 C        -0.563136         3.462296         2.998294
 C         0.833402         3.805792         2.438262
 O         1.077129         2.922747         1.295318
 C        -0.124700         2.744820         0.609311
 H         0.501042         0.019034         1.500047
 H        -2.681641         1.926433        -0.337807
 H        -2.510495         0.129720         0.317127
 H        -2.138882         1.227390         2.535577
 H        -2.074075         3.721450         1.030048
 H        -0.914733         4.326242         3.509647
 H        -0.441926         2.531243         3.513533
 H         0.706758         4.870440         2.178320
 H         1.593609         3.808997         3.195822
 H        -0.002419         3.281360        -0.393862
