19
Iteration:  3799charge 0 multiplicity 1
 O         0.291831         0.185135         0.461004
 C        -0.566766         1.218736         0.636966
 C        -2.066229         1.140210         0.214688
 C        -1.778238         1.625995         1.612435
 C        -1.293384         3.021068         1.652548
 C        -0.616380         3.517933         2.879238
 C         0.812221         3.863929         2.381502
 O         1.117509         2.795696         1.420091
 C        -0.095751         2.763354         0.648466
 H         1.071690         0.451776         1.011777
 H        -2.330920         1.750581        -0.762141
 H        -2.418566         0.052372         0.284354
 H        -1.959278         1.090272         2.517389
 H        -2.079472         3.741993         1.324045
 H        -1.115859         4.414977         3.352157
 H        -0.528215         2.874980         3.751504
 H         0.706640         4.838702         1.848846
 H         1.574829         3.947495         3.111199
 H        -0.065113         3.413983        -0.213553
