19
Iteration:  1670charge 0 multiplicity 1
 O         0.313777         0.045883         0.548717
 C        -0.521312         1.193027         0.752738
 C        -1.932400         1.073757         0.343441
 C        -1.805449         1.652716         1.666354
 C        -1.322706         3.104456         1.553073
 C        -0.600957         3.755076         2.770358
 C         0.829550         3.268500         2.602051
 O         1.018294         3.370409         1.145863
 C        -0.152169         2.718014         0.558067
 H         1.239124         0.229045         0.958555
 H        -2.376866         1.658947        -0.452735
 H        -2.358829        -0.034036         0.529065
 H        -2.209185         1.291400         2.690859
 H        -2.107485         3.766899         1.146849
 H        -0.801814         4.799997         2.697651
 H        -0.941754         3.383295         3.666596
 H         1.715016         3.923457         2.931395
 H         1.015277         2.199370         2.945379
 H        -0.271910         3.042322        -0.551818
