19
Iteration:  1275
 O         0.548795         0.350107         0.671494
 C        -0.593097         1.284385         0.684419
 C        -2.011053         1.039519         0.300136
 C        -1.703408         1.749303         1.658178
 C        -1.380761         3.184929         1.489316
 C        -0.590058         3.695488         2.796020
 C         0.839515         3.214563         2.614773
 O         0.927120         2.931152         1.154318
 C        -0.242132         2.720740         0.501976
 H         1.389351         0.786271         0.684249
 H        -2.367749         1.671307        -0.527156
 H        -2.548692         0.080753         0.641058
 H        -2.135720         1.220865         2.595001
 H        -2.271482         3.764535         1.371817
 H        -0.673914         4.789322         2.789575
 H        -1.074218         3.303855         3.676489
 H         1.615019         3.976746         2.916597
 H         1.029599         2.255024         3.181845
 H        -0.252018         3.085245        -0.452512
