19
Iteration:   580charge 0 multiplicity 1
 O         0.213940         0.115185         0.474808
 C        -0.549797         1.261183         0.644582
 C        -1.983819         1.074824         0.298501
 C        -1.603292         1.613950         1.701812
 C        -1.352216         3.088796         1.646275
 C        -0.662599         3.862829         2.753125
 C         0.833859         3.408945         2.619655
 O         1.036711         3.044631         1.258009
 C        -0.107528         2.699246         0.531135
 H         1.114156         0.269944         0.949359
 H        -2.525846         1.845061        -0.238816
 H        -2.119931         0.036911         0.164892
 H        -1.789896         1.034100         2.567351
 H        -2.197727         3.766390         1.247584
 H        -0.758332         4.939240         2.433843
 H        -1.045313         3.718426         3.756980
 H         1.589847         4.159072         2.946794
 H         1.041459         2.512973         3.253197
 H        -0.068308         3.139500        -0.518655
