19
Iteration:  1361charge 0 multiplicity 1
 O         0.286339         0.117709         0.588750
 C        -0.495782         1.265316         0.680120
 C        -1.927118         1.162201         0.331056
 C        -1.582201         1.597988         1.801775
 C        -1.391948         3.078555         1.583701
 C        -0.650087         3.783396         2.699288
 C         0.706586         3.233596         2.549481
 O         1.106688         3.176450         1.197238
 C        -0.184920         2.771135         0.493488
 H         1.213009         0.399257         0.782375
 H        -2.508377         1.918743        -0.277602
 H        -2.465256         0.084433         0.202289
 H        -2.087873         1.027391         2.693004
 H        -2.356179         3.462855         1.353699
 H        -0.681149         4.823954         2.441590
 H        -1.065939         3.675645         3.698423
 H         1.426211         3.874073         3.109349
 H         0.754880         2.208739         2.918758
 H        -0.056680         3.215204        -0.533945
