19
Iteration:   329charge 0 multiplicity 1
 O         0.164985         0.156405         0.611785
 C        -0.625535         1.257745         0.581677
 C        -2.071725         1.292473         0.141309
 C        -1.703500         1.511696         1.594508
 C        -1.288525         2.994818         1.739140
 C        -0.557132         3.582977         2.906925
 C         0.762758         3.937516         2.243227
 O         1.214036         2.791549         1.398976
 C        -0.040792         2.635750         0.675477
 H         0.883043         0.339832         1.154690
 H        -2.526615         2.013936        -0.505336
 H        -2.398198         0.274114         0.028194
 H        -2.135055         0.762962         2.351541
 H        -2.125040         3.620782         1.438469
 H        -1.138847         4.277533         3.457451
 H        -0.399671         2.799480         3.611287
 H         0.614221         4.915942         1.601856
 H         1.539692         4.105769         2.950087
 H         0.069295         3.252842        -0.210013
