19
Iteration:  1213
 O         0.374056         0.055340         0.535045
 C        -0.476191         1.160631         0.670131
 C        -1.967049         1.120653         0.371436
 C        -1.672164         1.681802         1.737184
 C        -1.350937         3.106944         1.533177
 C        -0.648857         3.776401         2.779319
 C         0.770894         3.257099         2.584923
 O         0.999533         3.240468         1.155486
 C        -0.179882         2.794493         0.553987
 H         0.896558         0.064076         1.295823
 H        -2.068788         1.738144        -0.455194
 H        -2.502724         0.127825         0.215490
 H        -2.172228         1.324207         2.713212
 H        -2.222971         3.802764         1.207667
 H        -0.525392         4.917685         2.824163
 H        -1.147124         3.450083         3.697721
 H         1.692718         3.747380         2.951132
 H         0.829073         2.234871         2.918979
 H        -0.313247         3.187528        -0.553146
