19
Iteration:  2197
 O         0.456664         0.445371         0.660580
 C        -0.658943         1.283174         0.617737
 C        -2.014334         0.995775         0.170207
 C        -1.809905         1.541316         1.683894
 C        -1.317358         3.070885         1.672814
 C        -0.538248         3.758019         2.759614
 C         0.875816         3.342707         2.579408
 O         1.045426         2.871113         1.197478
 C        -0.269700         2.758901         0.584144
 H         1.202825         1.135913         0.863197
 H        -2.551573         1.633113        -0.585972
 H        -2.271332         0.044309         0.117887
 H        -2.108115         0.870108         2.435796
 H        -2.088951         3.777952         1.301355
 H        -0.712843         4.885762         2.517435
 H        -1.039665         3.694703         3.748237
 H         1.545006         4.187401         2.776589
 H         1.262139         2.523243         3.230442
 H        -0.327010         3.268487        -0.313893
