19
Iteration:  1992charge 0 multiplicity 1
 O         0.371999         0.295206         0.644898
 C        -0.598856         1.288043         0.685743
 C        -2.047436         1.092362         0.277676
 C        -1.553866         1.513273         1.722115
 C        -1.342805         3.069057         1.585065
 C        -0.597132         3.819731         2.702434
 C         0.766586         3.114066         2.593464
 O         1.051454         3.172373         1.202744
 C        -0.211508         2.776303         0.513499
 H         1.185682         0.734788         0.646449
 H        -2.764912         1.638746        -0.449034
 H        -2.319411         0.018210         0.365634
 H        -1.834938         0.933976         2.677175
 H        -2.229321         3.429324         1.053564
 H        -0.515154         4.801473         2.431810
 H        -1.053346         3.795129         3.674301
 H         1.572409         3.682092         3.034795
 H         0.719518         2.131572         3.126116
 H        -0.361291         3.386049        -0.449516
