19
Iteration:    38
 O         0.463301         0.488008         0.726276
 C        -0.652069         1.307935         0.568129
 C        -2.064003         0.946480         0.352995
 C        -1.818087         1.749871         1.579081
 C        -1.264802         3.124190         1.556945
 C        -0.527318         3.674240         2.777304
 C         0.875771         3.182240         2.549429
 O         0.983529         2.842695         1.173962
 C        -0.235113         2.802169         0.561424
 H         1.053835         1.120944         0.991596
 H        -2.636181         1.262676        -0.527974
 H        -2.237128        -0.082383         0.666243
 H        -2.267278         1.256386         2.468906
 H        -2.019034         3.965134         1.214210
 H        -0.588540         4.741329         2.653448
 H        -0.930157         3.323005         3.717000
 H         1.761226         3.880505         2.751700
 H         1.287409         2.418244         3.264805
 H        -0.197174         3.476310        -0.318546
