19
Iteration:  2902
 O         0.266219         0.067509         0.516624
 C        -0.582223         1.290804         0.618336
 C        -2.072524         1.198390         0.205736
 C        -1.745917         1.549187         1.658716
 C        -1.294578         3.022145         1.626509
 C        -0.603170         3.495988         2.811333
 C         0.893183         3.916609         2.449330
 O         1.076897         2.924836         1.394284
 C        -0.125054         2.743073         0.631930
 H         1.017999         0.179149         1.159880
 H        -2.535388         1.815023        -0.666870
 H        -2.388835         0.179336         0.038159
 H        -1.981635         0.839607         2.374776
 H        -2.038230         3.793412         1.382095
 H        -1.151318         4.328160         3.254081
 H        -0.521502         2.871722         3.588368
 H         1.154467         4.807506         2.002845
 H         1.567239         3.585467         3.221563
 H        -0.100536         3.220791        -0.317134
