19
Iteration:  1675
 O         0.292251         0.086004         0.562379
 C        -0.482223         1.202758         0.741071
 C        -1.878255         1.111216         0.356081
 C        -1.785349         1.640345         1.703277
 C        -1.360255         3.118800         1.506317
 C        -0.609095         3.707158         2.766177
 C         0.857676         3.284517         2.546755
 O         0.967493         3.313845         1.150289
 C        -0.151021         2.692050         0.609828
 H         1.171171         0.181481         0.826128
 H        -2.465149         1.753353        -0.381684
 H        -2.267309         0.169658         0.470167
 H        -2.129126         1.296276         2.609206
 H        -2.020407         3.824310         0.974819
 H        -0.823534         4.813188         2.653772
 H        -1.044900         3.389657         3.820306
 H         1.652086         3.900307         2.904607
 H         1.006536         2.288155         2.981716
 H        -0.184629         3.009006        -0.386836
