19
Iteration:   865
 O         0.361657         0.315053         0.679412
 C        -0.541956         1.380170         0.557472
 C        -2.052040         0.975494         0.344011
 C        -1.655857         1.655960         1.680092
 C        -1.357665         3.169052         1.562051
 C        -0.638636         3.729605         2.705752
 C         0.859483         3.248901         2.645170
 O         1.039491         2.869448         1.206107
 C        -0.192672         2.854707         0.470728
 H         1.201884         0.636679         1.244541
 H        -2.800645         1.484764        -0.472964
 H        -2.388236        -0.116262         0.322030
 H        -1.851934         1.099126         2.581878
 H        -2.234537         3.753362         1.264673
 H        -0.599570         4.907553         2.570674
 H        -1.019099         3.561059         3.732199
 H         1.604577         4.038505         2.875548
 H         0.914972         2.394157         3.312404
 H        -0.141728         3.221781        -0.553916
