19
Iteration:  2869
 O         0.294016         0.143528         0.542332
 C        -0.634644         1.277435         0.741375
 C        -1.985242         1.134705         0.146156
 C        -1.763191         1.607124         1.658869
 C        -1.295969         3.136379         1.655221
 C        -0.678078         3.499232         2.926969
 C         0.870448         3.728970         2.461730
 O         1.111547         2.942913         1.207386
 C        -0.131004         2.681749         0.631129
 H         1.162161         0.258916         0.867874
 H        -2.149761         1.850894        -0.728469
 H        -2.309962         0.147055         0.226138
 H        -2.138720         1.017433         2.414370
 H        -1.974174         3.915446         1.283701
 H        -1.054234         4.472057         3.231878
 H        -0.751754         2.809830         3.658588
 H         0.897611         4.770005         2.210065
 H         1.668515         3.587224         3.180596
 H        -0.277238         3.092282        -0.364626
