19
Iteration:  3645charge 0 multiplicity 1
 O         0.336813         0.259152         0.567931
 C        -0.614944         1.237252         0.636741
 C        -2.067430         1.079579         0.181483
 C        -1.805958         1.616428         1.598199
 C        -1.286481         3.066423         1.625332
 C        -0.605882         3.514419         2.917700
 C         0.855762         3.850395         2.478916
 O         1.123925         2.829333         1.344221
 C        -0.143694         2.680665         0.591654
 H         1.193278         0.561450         0.976671
 H        -2.430143         1.779006        -0.692352
 H        -2.475804         0.105032        -0.010745
 H        -2.257128         0.932694         2.386562
 H        -1.960664         3.919684         1.321561
 H        -1.099955         4.451916         3.239492
 H        -0.518592         2.672126         3.602809
 H         0.792763         4.846844         2.052492
 H         1.591170         3.740870         3.219627
 H        -0.031194         3.122562        -0.413365
