19
Iteration:  2115charge 0 multiplicity 1
 O         0.249471         0.053713         0.468243
 C        -0.440650         1.261776         0.693049
 C        -1.924803         1.089554         0.362788
 C        -1.632176         1.598613         1.707553
 C        -1.351177         3.038187         1.560058
 C        -0.613179         3.827476         2.786411
 C         0.739857         3.239135         2.629635
 O         1.013737         3.281290         1.188110
 C        -0.159719         2.808068         0.586182
 H         1.234982         0.038513         0.771210
 H        -2.501762         1.747866        -0.375249
 H        -2.282204        -0.055472         0.423878
 H        -2.147308         1.160647         2.559543
 H        -2.105512         3.590913         1.008761
 H        -0.526619         4.800818         2.423578
 H        -1.061683         3.784492         3.782402
 H         1.475191         3.902287         3.160272
 H         0.830393         2.175741         2.934267
 H        -0.393589         3.246225        -0.468508
