19
Iteration:  4154
 O         0.315642         0.066883         0.576732
 C        -0.536935         1.191068         0.547073
 C        -2.072182         1.185953         0.181552
 C        -1.614949         1.588366         1.573353
 C        -1.382635         3.051318         1.593910
 C        -0.613420         3.657186         2.953398
 C         0.902036         3.782806         2.479702
 O         1.008523         2.923813         1.337417
 C        -0.153590         2.733278         0.733323
 H         1.008273         0.269400        -0.130746
 H        -2.611742         1.979297        -0.283748
 H        -2.397790         0.180053         0.166931
 H        -1.865638         1.001815         2.406975
 H        -2.078275         3.686552         1.163376
 H        -1.073926         4.637335         3.270378
 H        -0.813471         2.899368         3.783446
 H         1.028019         4.754538         2.031909
 H         1.638116         3.257678         3.148740
 H        -0.208862         3.292756        -0.290940
