19
Iteration:  4640
 O         0.329728         0.285585         0.667237
 C        -0.602984         1.318974         0.636844
 C        -1.948274         1.124915         0.112503
 C        -1.708793         1.568842         1.593102
 C        -1.327265         3.090200         1.639893
 C        -0.554101         3.399123         2.883329
 C         0.858168         3.639629         2.426565
 O         0.993056         2.907877         1.229467
 C        -0.213713         2.833569         0.658781
 H         0.682590         0.421454         1.563454
 H        -2.625943         1.786157        -0.498037
 H        -2.135853         0.063457         0.051618
 H        -1.953854         1.055965         2.491435
 H        -2.084516         3.812557         1.273064
 H        -0.912699         4.227725         3.656260
 H        -0.476586         2.499529         3.579119
 H         0.950315         4.671754         2.041503
 H         1.774901         3.314191         3.062076
 H        -0.270425         3.446086        -0.351065
