19
Iteration:  1669charge 0 multiplicity 1
 O         0.319953         0.040128         0.547880
 C        -0.526932         1.192189         0.755555
 C        -1.947960         1.060539         0.339905
 C        -1.805344         1.657862         1.665756
 C        -1.314656         3.099269         1.562560
 C        -0.599713         3.761931         2.768193
 C         0.828134         3.267386         2.610588
 O         1.027505         3.377847         1.144059
 C        -0.153323         2.724607         0.547723
 H         1.198067         0.236352         0.967017
 H        -2.355824         1.630618        -0.469851
 H        -2.351561        -0.023602         0.509457
 H        -2.220395         1.285997         2.673353
 H        -2.136547         3.769782         1.172234
 H        -0.781303         4.820810         2.711978
 H        -0.946674         3.369209         3.674463
 H         1.690901         3.911089         2.942832
 H         1.007559         2.208026         2.932666
 H        -0.275883         3.046716        -0.560446
