19
Iteration:  2668charge 0 multiplicity 1
 O         0.328243         0.213468         0.468667
 C        -0.617950         1.244807         0.615220
 C        -2.010971         1.130743         0.176270
 C        -1.733765         1.558237         1.684399
 C        -1.318536         3.052383         1.597585
 C        -0.512362         3.657846         2.892129
 C         0.869874         3.832480         2.359744
 O         0.960558         2.754244         1.467188
 C        -0.146437         2.731525         0.665743
 H         1.133170         0.517135         0.986536
 H        -2.581240         1.615721        -0.687260
 H        -2.462609         0.168392         0.184926
 H        -1.976033         0.896606         2.511245
 H        -2.082278         3.738387         1.261167
 H        -0.999130         4.434754         3.404821
 H        -0.434210         2.890500         3.562666
 H         0.781179         4.768439         1.798883
 H         1.741149         3.764450         3.041457
 H         0.047822         3.314203        -0.293996
