19
Iteration:  3852
 O         0.298315         0.158683         0.501340
 C        -0.552577         1.219595         0.507460
 C        -2.089959         1.177090         0.177892
 C        -1.700474         1.487381         1.600015
 C        -1.356216         3.025279         1.662943
 C        -0.607463         3.648046         2.940576
 C         0.834761         3.836830         2.419826
 O         1.102314         2.847917         1.438593
 C        -0.125248         2.721290         0.626884
 H         1.137214         0.392519         0.983732
 H        -2.834161         1.917059        -0.272140
 H        -2.276784         0.064078         0.246759
 H        -2.051329         0.940035         2.473095
 H        -2.098425         3.713182         1.334591
 H        -0.877353         4.716238         3.109947
 H        -0.558283         3.084780         3.824283
 H         0.797676         4.801760         1.864530
 H         1.626486         3.637277         3.129763
 H         0.041399         3.326749        -0.327564
