19
Iteration:  1129charge 0 multiplicity 1
 O         0.491188         0.372437         0.568143
 C        -0.581585         1.240712         0.689297
 C        -2.000103         1.051410         0.293394
 C        -1.625177         1.614257         1.719670
 C        -1.356558         3.189238         1.577234
 C        -0.563792         3.832029         2.686458
 C         0.785144         3.274235         2.624453
 O         0.992396         2.833670         1.243960
 C        -0.332896         2.740567         0.478118
 H         1.283216         0.744341         1.074152
 H        -2.520179         1.793264        -0.446778
 H        -2.465320        -0.030787         0.310109
 H        -2.021520         1.166542         2.688643
 H        -2.178366         3.764628         1.197468
 H        -0.528496         4.928311         2.672961
 H        -1.221185         3.610096         3.592165
 H         1.703119         3.841543         2.842964
 H         0.771652         2.348103         3.297248
 H        -0.306303         3.323007        -0.418026
