19
Iteration:  1790
 O         0.374572         0.262340         0.508021
 C        -0.550538         1.244461         0.610493
 C        -2.104175         1.016492         0.484359
 C        -1.510863         1.638453         1.727147
 C        -1.378020         3.140289         1.514908
 C        -0.648202         3.862373         2.665868
 C         0.698338         3.078479         2.634052
 O         1.027420         3.192288         1.259881
 C        -0.159641         2.702738         0.488514
 H         1.266525         0.630853         0.894776
 H        -2.511036         1.494211        -0.380048
 H        -2.417197        -0.050386         0.574408
 H        -1.587108         1.201343         2.723329
 H        -2.258379         3.818447         1.274492
 H        -0.419080         4.921353         2.432560
 H        -1.105306         3.785093         3.638457
 H         1.665320         3.514165         3.054656
 H         0.661361         2.083906         3.044149
 H         0.256100         3.233437        -0.420059
