19
Iteration:   507charge 0 multiplicity 1
 O         0.367727         0.243418         0.543403
 C        -0.582547         1.314574         0.552599
 C        -2.037583         0.888899         0.362233
 C        -1.652290         1.698345         1.684612
 C        -1.335540         3.233659         1.541909
 C        -0.612134         3.863975         2.813858
 C         0.798168         3.255096         2.710657
 O         1.012931         2.878439         1.179731
 C        -0.186971         2.832206         0.470585
 H         1.268927         0.611575         0.970584
 H        -2.756152         1.412217        -0.242818
 H        -2.162868        -0.143534         0.533468
 H        -1.651141         1.314577         2.711813
 H        -2.131507         3.878201         1.265388
 H        -0.638990         4.913898         2.669175
 H        -1.114275         3.550868         3.723737
 H         1.679116         3.936254         2.923746
 H         0.937969         2.446833         3.391850
 H        -0.067957         3.185930        -0.532018
