19
Iteration:  2727
 O         0.149397         0.044850         0.467458
 C        -0.590087         1.185986         0.613087
 C        -1.980416         1.295046         0.157036
 C        -1.565458         1.541325         1.733212
 C        -1.323005         3.003845         1.548204
 C        -0.568261         3.561851         2.966182
 C         0.788556         3.965892         2.423723
 O         1.083786         2.957311         1.408948
 C        -0.122526         2.628347         0.606337
 H         0.908893         0.061980         1.099964
 H        -2.366282         2.096263        -0.484394
 H        -2.303995         0.210576         0.029715
 H        -2.029781         1.235849         2.685457
 H        -2.198952         3.499933         1.107241
 H        -1.336104         4.204944         3.441776
 H        -0.502106         2.600238         3.569089
 H         0.909001         4.921159         1.966373
 H         1.653792         3.937683         3.062452
 H         0.017968         3.099750        -0.439107
