19
Iteration:   342charge 0 multiplicity 1
 O         0.200949         0.164836         0.576269
 C        -0.624479         1.323347         0.659918
 C        -2.058885         1.149755         0.138254
 C        -1.854945         1.540542         1.593058
 C        -1.368437         3.020926         1.678186
 C        -0.509792         3.526947         2.917306
 C         0.875227         3.887313         2.330952
 O         1.131575         2.846407         1.391907
 C        -0.029108         2.689408         0.625298
 H         0.972275         0.440415         1.225127
 H        -2.597309         1.792543        -0.459855
 H        -2.246215         0.076241        -0.085103
 H        -1.981938         0.876508         2.468076
 H        -1.902525         3.765182         1.235654
 H        -0.817570         4.523920         3.216625
 H        -0.348348         2.891523         3.767607
 H         0.893866         4.861704         1.758321
 H         1.663430         3.944080         3.049435
 H         0.032986         3.077041        -0.345096
