19
Iteration:  4437
 O         0.262569         0.117086         0.489314
 C        -0.537005         1.305131         0.636166
 C        -1.968553         1.116748         0.200601
 C        -1.696840         1.549457         1.680205
 C        -1.322863         3.048487         1.635376
 C        -0.670560         3.588329         2.837806
 C         0.881788         3.816811         2.449702
 O         1.062829         2.895354         1.451257
 C        -0.163293         2.777647         0.634780
 H         0.732995         0.032181        -0.374183
 H        -2.563423         1.958895        -0.292627
 H        -2.300609         0.106201         0.006233
 H        -1.715041         0.849002         2.491166
 H        -2.130228         3.721542         1.207439
 H        -1.170460         4.419926         3.213359
 H        -0.695453         2.785722         3.581285
 H         1.060389         4.822112         2.043669
 H         1.607739         3.470048         3.214295
 H        -0.153468         3.297472        -0.390560
