19
Iteration:   225charge 0 multiplicity 1
 O         0.323781         0.197057         0.551454
 C        -0.526789         1.301809         0.654409
 C        -2.035483         1.166000         0.314363
 C        -1.642735         1.629108         1.652260
 C        -1.322257         3.110461         1.599345
 C        -0.615535         3.671321         2.841634
 C         0.842000         3.563999         2.401543
 O         0.969187         2.730320         1.338308
 C        -0.200696         2.790692         0.544832
 H         1.088742         0.369470         1.255925
 H        -2.588715         1.775439        -0.407096
 H        -2.184154         0.051130         0.225386
 H        -1.768934         1.184860         2.622015
 H        -1.997600         3.932216         1.121355
 H        -0.890126         4.720782         2.874994
 H        -0.843018         3.075461         3.749446
 H         1.052990         4.690721         2.070034
 H         1.572459         3.294609         3.210772
 H         0.033587         3.351874        -0.426836
