19
Iteration:  1863charge 0 multiplicity 1
 O         0.439775         0.252618         0.629341
 C        -0.625540         1.158983         0.677335
 C        -2.038482         1.134344         0.207286
 C        -1.820443         1.631723         1.711272
 C        -1.363699         3.002276         1.619956
 C        -0.645013         3.683296         2.769756
 C         0.958815         3.468017         2.529657
 O         1.095431         3.027821         1.169170
 C        -0.206213         2.757499         0.624420
 H         1.114095         1.009419         0.814615
 H        -2.440623         1.764116        -0.601222
 H        -2.639597         0.099014         0.117184
 H        -2.316580         0.991229         2.566961
 H        -2.173794         3.494502         1.071694
 H        -0.899995         4.812087         2.659699
 H        -0.845170         3.292429         3.855473
 H         1.527163         4.320192         2.870649
 H         1.326754         2.597179         3.177163
 H        -0.173266         3.195807        -0.352280
