19
Iteration:  1926charge 0 multiplicity 1
 O         0.385273         0.258162         0.609349
 C        -0.656237         1.299757         0.668250
 C        -2.094520         1.049282         0.334397
 C        -1.720505         1.613376         1.673896
 C        -1.307379         3.059738         1.467522
 C        -0.660800         3.615939         2.840271
 C         0.900153         3.353136         2.588621
 O         1.062164         3.155448         1.174924
 C        -0.140091         2.748712         0.491515
 H         0.920673         0.497390         1.438427
 H        -2.754829         1.588361        -0.369737
 H        -2.196332        -0.137526         0.287379
 H        -1.874798         1.111754         2.739127
 H        -1.968169         3.831833         1.047267
 H        -0.859945         4.609364         2.973038
 H        -0.954292         3.116451         3.746482
 H         1.527685         4.234162         2.796307
 H         1.386585         2.529665         3.195876
 H        -0.083624         3.226941        -0.552026
