19
Iteration:  1172
 O         0.263279         0.211312         0.602830
 C        -0.616078         1.314031         0.687890
 C        -1.951535         0.997230         0.314325
 C        -1.733498         1.571652         1.730065
 C        -1.370533         3.051147         1.487232
 C        -0.588306         3.707525         2.655530
 C         0.897810         3.308551         2.654172
 O         1.105459         3.118719         1.221732
 C        -0.178635         2.850118         0.543034
 H         1.247276         0.490313         0.702760
 H        -2.540046         1.788339        -0.323494
 H        -2.353574        -0.065758         0.305684
 H        -1.949519         1.108633         2.724162
 H        -2.236221         3.635683         1.117126
 H        -0.806644         4.779193         2.494669
 H        -1.050072         3.529423         3.647079
 H         1.381008         4.194450         3.077668
 H         1.113301         2.417098         3.316178
 H        -0.064972         3.338962        -0.491864
