19
Iteration:  2138
 O         0.277134         0.203224         0.478003
 C        -0.599606         1.292552         0.702866
 C        -2.060699         0.965650         0.385671
 C        -1.659926         1.627736         1.742426
 C        -1.387929         3.126395         1.478692
 C        -0.636786         3.707443         2.718727
 C         0.883586         3.289340         2.658676
 O         1.066475         3.279031         1.238081
 C        -0.070076         2.726838         0.546799
 H         1.083263         0.373950         0.924236
 H        -2.535739         1.478902        -0.463370
 H        -2.036299        -0.298220         0.300695
 H        -1.918763         1.007956         2.677563
 H        -2.162176         3.765867         1.080499
 H        -0.782235         4.781874         2.702604
 H        -1.181702         3.226052         3.531652
 H         1.674543         3.886746         3.226055
 H         0.858723         2.207522         2.913331
 H         0.028556         3.135612        -0.527125
