19
Iteration:  1964charge 0 multiplicity 1
 O         0.384947         0.078512         0.561301
 C        -0.453372         1.269194         0.730494
 C        -1.931789         1.093373         0.269719
 C        -1.725347         1.611000         1.728445
 C        -1.411865         3.153409         1.682676
 C        -0.636875         3.827947         2.804567
 C         0.821442         3.137896         2.555992
 O         0.985146         3.202140         1.152856
 C        -0.210986         2.794273         0.514744
 H         1.281891         0.379880         0.554975
 H        -2.498235         1.671477        -0.462595
 H        -2.137275         0.092629         0.191529
 H        -1.991594         1.186175         2.602007
 H        -2.287448         3.638386         1.249703
 H        -0.551944         4.941364         2.358709
 H        -1.175780         3.883504         3.806183
 H         1.672312         3.783717         2.848490
 H         0.843768         2.147298         3.043290
 H        -0.341103         3.240977        -0.424521
