19
Iteration:  3719
 O         0.352502         0.159484         0.576837
 C        -0.620715         1.151221         0.727689
 C        -1.970459         1.162649         0.166144
 C        -1.867914         1.573478         1.552060
 C        -1.323071         3.044767         1.603998
 C        -0.561715         3.519490         2.868257
 C         0.939290         3.828262         2.488116
 O         1.096266         2.962941         1.305062
 C        -0.235855         2.715325         0.615348
 H         1.129114         0.662036         0.921358
 H        -2.490962         1.834683        -0.587714
 H        -2.652512         0.358010        -0.012363
 H        -2.307882         0.969147         2.426537
 H        -2.017557         3.815703         1.364965
 H        -1.054722         4.446618         3.228874
 H        -0.385142         2.749429         3.611270
 H         1.132056         4.904763         2.350061
 H         1.505439         3.364735         3.380760
 H        -0.200013         3.083747        -0.420518
