19
Iteration:  4519
 O         0.321021         0.161576         0.549300
 C        -0.577609         1.231073         0.674966
 C        -2.043564         1.183510         0.123546
 C        -1.764813         1.551433         1.511653
 C        -1.297494         3.025278         1.695744
 C        -0.538843         3.504392         2.947149
 C         0.788626         3.926307         2.353950
 O         1.085391         2.892976         1.378010
 C        -0.096439         2.699031         0.772391
 H         0.236740        -0.178124        -0.378188
 H        -2.178219         2.008891        -0.585367
 H        -2.358455         0.174661        -0.158233
 H        -2.003954         0.890117         2.453224
 H        -1.982647         3.810146         1.363465
 H        -1.085686         4.298366         3.672010
 H        -0.586349         2.758591         3.784954
 H         0.529091         4.922287         1.929574
 H         1.643795         4.018816         3.090299
 H        -0.198544         3.063060        -0.317930
