19
Iteration:  3696
 O         0.282724         0.246606         0.659966
 C        -0.598368         1.307553         0.617151
 C        -2.000580         1.117939         0.116822
 C        -1.763630         1.631183         1.614056
 C        -1.323449         3.037471         1.619767
 C        -0.607691         3.502028         2.981068
 C         0.821109         3.710851         2.377282
 O         1.094598         2.886353         1.282866
 C        -0.123067         2.725471         0.622955
 H         1.090598         0.603574         1.064299
 H        -2.601812         1.558808        -0.692333
 H        -2.273707         0.076123         0.019851
 H        -2.034432         0.991927         2.464612
 H        -2.011492         3.762188         1.260885
 H        -0.908285         4.463240         3.429646
 H        -0.506643         2.727582         3.735074
 H         0.832257         4.777079         2.090040
 H         1.647959         3.484743         3.167599
 H         0.024091         3.131880        -0.379615
