19
Iteration:  2370
 O         0.275853         0.205467         0.574508
 C        -0.561031         1.319815         0.593753
 C        -1.970908         1.019108         0.321642
 C        -1.665396         1.597710         1.703996
 C        -1.349228         3.091732         1.569557
 C        -0.642191         3.728713         2.768482
 C         0.887877         3.395124         2.618226
 O         1.033655         3.001448         1.197746
 C        -0.176490         2.800309         0.576625
 H         1.147460         0.555123         0.974674
 H        -2.623823         1.530126        -0.590747
 H        -2.127689        -0.073177         0.367883
 H        -2.131951         1.069122         2.549067
 H        -2.246448         3.634588         1.239173
 H        -0.688646         4.823555         2.841140
 H        -0.980745         3.321470         3.667329
 H         1.319771         4.433101         2.655440
 H         1.367203         2.624707         3.180295
 H        -0.109975         3.437713        -0.437663
