19
Iteration:  2640charge 0 multiplicity 1
 O         0.350611         0.296391         0.541102
 C        -0.599909         1.281050         0.621633
 C        -2.090041         1.128371         0.244260
 C        -1.663098         1.572523         1.700676
 C        -1.290756         3.055185         1.611211
 C        -0.650932         3.657546         2.839145
 C         0.797087         3.658295         2.433435
 O         1.066038         2.735160         1.302439
 C        -0.109638         2.765923         0.577792
 H         1.063957         0.629148         1.187616
 H        -2.521069         1.850940        -0.423865
 H        -2.590495         0.076956         0.173611
 H        -1.694282         0.811387         2.567233
 H        -2.098258         3.786695         1.365253
 H        -1.231606         4.621717         3.135019
 H        -0.637126         2.961765         3.810099
 H         0.963693         4.730014         2.092230
 H         1.484927         3.407337         3.241634
 H         0.032882         3.281358        -0.354658
