19
Iteration:  1085charge 0 multiplicity 1
 O         0.348847         0.213812         0.498368
 C        -0.594709         1.271071         0.662829
 C        -2.059998         0.954606         0.436347
 C        -1.618470         1.662379         1.680711
 C        -1.291477         3.160402         1.461097
 C        -0.606463         3.860660         2.656945
 C         0.705727         3.128313         2.696195
 O         1.091500         3.168313         1.254186
 C        -0.187047         2.804149         0.548270
 H         1.150421         0.544047         0.877512
 H        -2.724642         1.368755        -0.453511
 H        -2.050982        -0.246731         0.558112
 H        -1.916274         1.142630         2.658824
 H        -2.131615         3.782679         1.163625
 H        -0.528058         4.981280         2.638592
 H        -1.045185         3.633341         3.710461
 H         1.584809         3.544941         3.268671
 H         0.680160         2.013148         2.927124
 H        -0.084162         3.132919        -0.472283
