19
Iteration:  2604
 O         0.357581         0.138746         0.478115
 C        -0.608805         1.270910         0.634959
 C        -2.006537         0.973551         0.280902
 C        -1.802235         1.635271         1.653387
 C        -1.354275         3.110047         1.647506
 C        -0.614895         3.713957         2.821331
 C         0.859040         3.581209         2.575745
 O         1.089354         2.957262         1.236024
 C        -0.155830         2.812717         0.594616
 H         1.273728         0.406668         0.818553
 H        -2.533578         1.467450        -0.674423
 H        -2.338106         0.022654         0.529804
 H        -2.027778         1.141810         2.588295
 H        -2.122482         3.757925         1.224397
 H        -0.794392         4.756192         3.059662
 H        -0.855775         3.100195         3.727515
 H         1.412912         4.488811         2.573349
 H         1.323695         2.848771         3.248434
 H        -0.137748         3.396688        -0.395770
