19
Iteration:  3663charge 0 multiplicity 1
 O         0.348865         0.239988         0.622347
 C        -0.626766         1.263593         0.568471
 C        -2.027261         1.115729         0.168264
 C        -1.740032         1.611136         1.573372
 C        -1.355765         3.103179         1.552937
 C        -0.548189         3.461170         2.905686
 C         0.844765         3.767680         2.349550
 O         1.014688         2.836380         1.407503
 C        -0.132379         2.785110         0.654411
 H         0.927316         0.570884         1.369787
 H        -2.633836         1.710430        -0.534377
 H        -2.180030         0.031254         0.417236
 H        -1.985804         1.259316         2.544709
 H        -2.097243         3.732322         1.133974
 H        -0.989295         4.174312         3.595322
 H        -0.329952         2.498013         3.412031
 H         1.050041         4.816593         2.027353
 H         1.608489         3.486179         3.203259
 H        -0.012368         3.301216        -0.288376
