19
Iteration:   739
 O         0.266245         0.181318         0.587439
 C        -0.529553         1.242285         0.735261
 C        -2.066585         1.103435         0.343266
 C        -1.654202         1.640226         1.677389
 C        -1.328347         3.108355         1.509089
 C        -0.632877         3.702325         2.751877
 C         0.797234         3.200961         2.600862
 O         1.073245         3.288418         1.170825
 C        -0.080507         2.701344         0.524576
 H         1.132833         0.375085         1.113606
 H        -2.556846         1.754472        -0.373593
 H        -2.442057         0.127059         0.437350
 H        -2.014612         1.185617         2.562724
 H        -2.065930         3.879707         1.211717
 H        -0.688916         4.735644         2.655814
 H        -1.218019         3.340500         3.629117
 H         1.502323         3.798303         3.149378
 H         0.971719         2.152405         2.925066
 H         0.036933         2.857357        -0.523822
