19
Iteration:  1687
 O         0.265259         0.137793         0.582487
 C        -0.494458         1.289997         0.789115
 C        -1.915934         1.117641         0.333903
 C        -1.651377         1.660507         1.780327
 C        -1.360176         3.102660         1.528335
 C        -0.674489         3.682110         2.718266
 C         0.840873         3.312614         2.539215
 O         0.998195         3.170589         1.132231
 C        -0.188504         2.700399         0.581429
 H         1.194078         0.403582         0.850898
 H        -2.231433         1.856037        -0.479164
 H        -2.064167         0.169108         0.035544
 H        -2.152085         1.138556         2.530937
 H        -2.175893         3.711969         1.042160
 H        -0.548015         4.805843         2.826778
 H        -1.164875         3.250583         3.721367
 H         1.435575         4.109048         2.883202
 H         1.135586         2.357279         2.966073
 H        -0.169406         2.975422        -0.427691
