19
Iteration:  2345
 O         0.478405         0.423750         0.587809
 C        -0.653088         1.249614         0.629220
 C        -2.144402         1.009572         0.238543
 C        -1.675152         1.596206         1.671376
 C        -1.359183         3.053115         1.612734
 C        -0.564406         3.786022         2.756340
 C         0.857947         3.418776         2.565416
 O         1.044089         2.859204         1.250681
 C        -0.217777         2.671973         0.564441
 H         1.142731         0.892529         1.076824
 H        -2.649186         1.850950        -0.392044
 H        -2.567136         0.052406         0.057635
 H        -1.915812         1.232358         2.649221
 H        -2.266933         3.710245         1.345955
 H        -0.775699         4.841170         2.743888
 H        -0.724711         3.506000         3.837610
 H         1.555737         4.308608         2.705731
 H         1.091024         2.602018         3.221666
 H        -0.024690         3.145787        -0.490329
