19
Iteration:  1009charge 0 multiplicity 1
 O         0.420641         0.150075         0.567553
 C        -0.570242         1.245711         0.695671
 C        -1.992612         1.017325         0.194026
 C        -1.849253         1.668491         1.645555
 C        -1.379295         3.114187         1.565758
 C        -0.527705         3.765568         2.769978
 C         0.928733         3.370814         2.628395
 O         1.035264         3.060977         1.196969
 C        -0.273068         2.750641         0.678728
 H         1.379257         0.587478         0.597420
 H        -2.450506         1.472651        -0.803917
 H        -2.434456        -0.037276         0.416235
 H        -2.529048         1.282790         2.454544
 H        -2.071885         3.886789         1.294554
 H        -0.764227         4.831314         2.729293
 H        -0.951426         3.538859         3.822659
 H         1.550910         4.276626         2.892493
 H         1.358576         2.510470         3.138175
 H        -0.268559         3.176584        -0.279922
