19
Iteration:  1716charge 0 multiplicity 1
 O         0.395118         0.246429         0.679363
 C        -0.610106         1.300245         0.522926
 C        -2.103045         1.015281         0.331368
 C        -1.675683         1.597512         1.634382
 C        -1.339841         3.062709         1.611308
 C        -0.631908         3.784981         2.753253
 C         0.865603         3.371361         2.557412
 O         1.054536         3.027817         1.195948
 C        -0.190358         2.753519         0.588797
 H         1.113192         0.735281         1.253021
 H        -2.637728         1.723617        -0.396118
 H        -2.380728        -0.057700         0.321913
 H        -1.876310         0.934579         2.423871
 H        -2.081612         3.645001         1.123795
 H        -0.613865         4.847625         2.681187
 H        -0.958061         3.512918         3.722601
 H         1.660774         4.101603         2.882395
 H         1.134141         2.370156         3.031697
 H        -0.181003         3.271692        -0.412457
