19
Iteration:  4994charge 0 multiplicity 1
 O         0.276093         0.184634         0.313210
 C        -0.555460         1.239196         0.658733
 C        -1.966118         1.144525         0.194743
 C        -1.698659         1.563479         1.718418
 C        -1.287378         3.034917         1.651053
 C        -0.581509         3.593706         2.873933
 C         0.759020         3.912274         2.351942
 O         1.028914         2.797148         1.499903
 C        -0.144197         2.690537         0.691402
 H         1.156396         0.456335         0.635375
 H        -2.352193         1.996544        -0.382696
 H        -2.222522         0.053817        -0.029451
 H        -2.258068         1.061462         2.573142
 H        -2.175119         3.723286         1.411190
 H        -1.069452         4.293876         3.500866
 H        -0.419000         2.653416         3.518231
 H         0.753257         4.854931         1.856431
 H         1.647470         3.893843         3.121518
 H        -0.100699         3.247914        -0.262903
