19
Iteration:    11charge 0 multiplicity 1
 O         0.343614         0.338158         0.605446
 C        -0.629576         1.322899         0.681617
 C        -1.971392         0.974166         0.291656
 C        -1.722467         1.715986         1.722016
 C        -1.463234         3.244636         1.564566
 C        -0.545142         3.774127         2.726674
 C         0.902341         3.152765         2.615445
 O         1.099981         2.913029         1.179113
 C        -0.247856         2.753362         0.517830
 H         1.190667         0.827843         0.969279
 H        -2.574170         1.503487        -0.536666
 H        -1.957660        -0.105283         0.186660
 H        -1.837242         1.137539         2.646687
 H        -2.288416         3.871599         1.340359
 H        -0.627974         4.895307         2.722846
 H        -1.071645         3.429534         3.664676
 H         1.648804         3.883462         2.884857
 H         0.860275         2.264830         3.276490
 H        -0.163164         3.118871        -0.516914
