19
Iteration:  4917charge 0 multiplicity 1
 O         0.295549         0.109844         0.568707
 C        -0.606193         1.292096         0.533073
 C        -1.990998         1.104916         0.222542
 C        -1.623983         1.609383         1.624290
 C        -1.296743         3.126665         1.608095
 C        -0.566901         3.388182         2.941022
 C         0.788111         3.787083         2.451829
 O         1.047537         2.952314         1.295393
 C        -0.221830         2.816244         0.593847
 H         1.061330         0.363321         1.098868
 H        -2.410737         1.781127        -0.614019
 H        -2.288070         0.029546         0.259836
 H        -2.135560         1.122722         2.582065
 H        -1.996789         4.023339         1.399792
 H        -0.919381         4.183323         3.614812
 H        -0.663897         2.471929         3.677605
 H         0.952134         4.859176         2.233908
 H         1.663806         3.402039         3.151930
 H        -0.380101         3.367333        -0.300004
