19
Iteration:  4225
 O         0.303217         0.162357         0.594422
 C        -0.537671         1.253096         0.632973
 C        -2.045394         1.152562         0.186497
 C        -1.686881         1.622185         1.515473
 C        -1.288370         3.113656         1.630055
 C        -0.555204         3.472591         3.020423
 C         0.832062         3.873261         2.453712
 O         0.963880         2.932592         1.332306
 C        -0.109295         2.635643         0.613692
 H         0.298680        -0.306649        -0.290019
 H        -2.418249         1.842124        -0.616780
 H        -2.262881         0.059985         0.223996
 H        -2.012215         1.096507         2.450986
 H        -2.099642         3.850907         1.278520
 H        -1.036301         4.323098         3.551031
 H        -0.273249         2.735306         3.765184
 H         0.834885         4.928909         2.125517
 H         1.577385         3.507871         3.118171
 H        -0.042151         3.064059        -0.426918
