19
Iteration:   362charge 0 multiplicity 1
 O         0.271473         0.163422         0.542237
 C        -0.634747         1.214652         0.655078
 C        -1.987455         1.074821         0.205491
 C        -1.733426         1.676666         1.616636
 C        -1.287019         3.137181         1.606679
 C        -0.543274         3.587307         2.888977
 C         0.897382         3.778719         2.452586
 O         1.066017         2.838738         1.305354
 C        -0.229017         2.714382         0.634671
 H         1.126302         0.384051         1.150012
 H        -2.298873         1.557066        -0.666593
 H        -2.419390         0.073824         0.411265
 H        -2.446641         1.228492         2.391134
 H        -1.973278         3.943008         1.287003
 H        -1.064795         4.362481         3.385237
 H        -0.515328         2.662716         3.416599
 H         1.164266         4.911473         2.134363
 H         1.610531         3.416297         3.136750
 H        -0.222883         3.311885        -0.296813
