19
Iteration:  4453
 O         0.195347         0.147536         0.557123
 C        -0.533659         1.272532         0.517296
 C        -2.079654         1.130868         0.220599
 C        -1.585839         1.469420         1.579991
 C        -1.298549         3.003556         1.608213
 C        -0.605642         3.563979         2.911767
 C         0.788702         3.889367         2.499944
 O         1.117827         2.910183         1.399943
 C        -0.079116         2.775657         0.670288
 H         0.194964         0.028667        -0.404487
 H        -2.583660         1.689429        -0.515235
 H        -2.260326         0.039786         0.132593
 H        -1.975886         1.011739         2.518632
 H        -2.139794         3.542112         1.206360
 H        -1.082957         4.571086         3.258957
 H        -0.685680         2.998748         3.849142
 H         0.797577         4.891502         2.024449
 H         1.518655         3.694692         3.313026
 H         0.087788         3.435231        -0.152306
