19
Iteration:  1467charge 0 multiplicity 1
 O         0.458919         0.256769         0.529297
 C        -0.521466         1.239991         0.623842
 C        -2.033638         1.035707         0.353030
 C        -1.838721         1.630183         1.702841
 C        -1.347523         3.098529         1.570922
 C        -0.578945         3.765339         2.778757
 C         0.842452         3.414442         2.553429
 O         1.008587         2.938235         1.230753
 C        -0.186607         2.770029         0.588743
 H         1.266528         0.536218         0.925448
 H        -2.512733         1.613007        -0.372247
 H        -2.434346        -0.024710         0.242147
 H        -2.397024         1.197325         2.591678
 H        -2.187951         3.771427         1.101014
 H        -0.819860         4.821788         2.562809
 H        -0.980337         3.491523         3.816784
 H         1.566281         4.222416         2.608222
 H         1.213328         2.634573         3.316397
 H        -0.067385         3.261482        -0.381720
