19
Iteration:    56
 O         0.476512         0.378041         0.748647
 C        -0.610744         1.218622         0.580833
 C        -2.131046         1.075751         0.332327
 C        -1.793179         1.658719         1.686057
 C        -1.379278         3.197649         1.495628
 C        -0.550452         3.633323         2.800433
 C         0.918728         3.207229         2.592910
 O         1.092685         3.016421         1.148390
 C        -0.250268         2.742676         0.460844
 H         1.142851         0.997026         0.966681
 H        -2.656075         1.650038        -0.414735
 H        -2.603936         0.061559         0.380692
 H        -1.927229         1.159852         2.599608
 H        -2.127892         3.877522         1.164608
 H        -0.602682         4.711630         2.941158
 H        -1.049004         3.223456         3.670804
 H         1.549378         3.980932         3.021986
 H         1.049491         2.293803         3.137604
 H        -0.172170         3.027663        -0.580611
