19
Iteration:   974
 O         0.352186         0.323685         0.718107
 C        -0.599656         1.302882         0.641833
 C        -2.050199         1.106975         0.275093
 C        -1.646371         1.590572         1.696965
 C        -1.320815         3.100252         1.502183
 C        -0.650523         3.603851         2.751807
 C         0.847748         3.343405         2.596602
 O         1.081292         2.976372         1.157148
 C        -0.209067         2.826864         0.520549
 H         1.145092         0.561525         1.359362
 H        -2.640842         1.902071        -0.467441
 H        -2.374382         0.082591         0.224519
 H        -1.905199         1.196515         2.623530
 H        -2.233372         3.645458         1.206671
 H        -0.723797         4.762238         2.803139
 H        -1.040637         3.011046         3.582457
 H         1.525987         4.199719         2.780200
 H         1.178143         2.452434         3.210200
 H        -0.168176         2.990245        -0.518055
