19
Iteration:  2201
 O         0.462944         0.439286         0.650222
 C        -0.652539         1.281700         0.602804
 C        -2.043910         1.015512         0.180431
 C        -1.816922         1.549920         1.680733
 C        -1.341254         3.067867         1.689582
 C        -0.555019         3.743390         2.743149
 C         0.890705         3.366922         2.638882
 O         1.060227         2.883268         1.150358
 C        -0.245211         2.752108         0.624209
 H         1.092541         1.086121         0.927489
 H        -2.431678         1.498162        -0.715963
 H        -2.362739        -0.120253         0.070460
 H        -2.103791         0.872171         2.516265
 H        -2.122969         3.740760         1.278239
 H        -0.672841         4.744826         2.430286
 H        -0.951278         3.784185         3.791520
 H         1.546935         4.207312         2.796421
 H         1.222563         2.514570         3.219544
 H        -0.265806         3.279278        -0.406759
