19
Iteration:  4069charge 0 multiplicity 1
 O         0.288196         0.188608         0.552608
 C        -0.625733         1.304820         0.655169
 C        -1.994651         1.158536         0.172141
 C        -1.744792         1.507261         1.574783
 C        -1.285369         3.037909         1.666086
 C        -0.560367         3.530756         2.885788
 C         0.844930         3.858633         2.345128
 O         1.060011         2.874128         1.366852
 C        -0.162338         2.730688         0.675046
 H         0.485871        -0.101445         1.447218
 H        -2.479665         1.817378        -0.499209
 H        -2.105577         0.150960        -0.158118
 H        -2.006093         0.755401         2.263588
 H        -2.035438         3.848284         1.379943
 H        -1.081736         4.428214         3.345125
 H        -0.338531         2.666729         3.563475
 H         0.899136         4.904490         1.999253
 H         1.667008         3.832507         3.154613
 H        -0.086906         3.244069        -0.263207
