19
Iteration:  3035
 O         0.301225         0.231306         0.540243
 C        -0.627915         1.242063         0.604550
 C        -2.088199         1.104317         0.281926
 C        -1.683180         1.600716         1.677809
 C        -1.268949         3.076243         1.544239
 C        -0.643910         3.508699         2.839786
 C         0.850262         3.689973         2.455920
 O         1.117983         2.929065         1.328878
 C        -0.104431         2.777128         0.582926
 H         0.749463         0.472741         1.423800
 H        -2.643300         1.786495        -0.414254
 H        -2.272932        -0.064329         0.136140
 H        -2.105561         0.986947         2.563036
 H        -2.045249         3.808210         1.213974
 H        -1.054520         4.478472         3.224315
 H        -0.795981         2.772704         3.601538
 H         0.946404         4.809386         2.247919
 H         1.594829         3.250900         3.250300
 H        -0.129289         3.237983        -0.370144
