19
Iteration:  4808
 O         0.307313         0.279543         0.390215
 C        -0.593505         1.294562         0.638105
 C        -2.077402         1.054678         0.256643
 C        -1.773417         1.547217         1.695957
 C        -1.298498         3.044567         1.594990
 C        -0.591073         3.563840         2.878636
 C         0.838991         3.808397         2.542638
 O         1.110376         2.828736         1.326771
 C        -0.130655         2.725712         0.640566
 H         0.975124         0.602555         1.012245
 H        -2.489878         1.689893        -0.603553
 H        -2.201204         0.004766         0.101499
 H        -2.198194         0.941286         2.538018
 H        -1.964315         3.785572         1.223261
 H        -0.987913         4.429349         3.395074
 H        -0.593438         2.684453         3.625977
 H         1.047540         4.782584         1.957071
 H         1.533837         3.726614         3.296237
 H        -0.147701         3.244640        -0.356984
