19
Iteration:  2688charge 0 multiplicity 1
 O         0.218149         0.193432         0.407670
 C        -0.592386         1.244237         0.620639
 C        -2.018236         1.063526         0.178724
 C        -1.797154         1.565303         1.626582
 C        -1.324104         3.022370         1.675515
 C        -0.613951         3.591871         2.929874
 C         0.886544         3.976516         2.311042
 O         1.177105         2.798481         1.478659
 C        -0.154959         2.654117         0.702076
 H         0.980588         0.370034         0.933955
 H        -2.498862         1.660469        -0.636890
 H        -2.128904         0.066884         0.048274
 H        -2.292485         1.180379         2.435185
 H        -1.946695         3.852878         1.283549
 H        -0.918648         4.530611         3.400849
 H        -0.404477         2.942147         3.761598
 H         0.791686         5.051841         1.812977
 H         1.666117         4.011873         3.112768
 H        -0.053143         3.130745        -0.231518
