19
Iteration:  3969
 O         0.289361         0.216487         0.631761
 C        -0.570901         1.280024         0.550831
 C        -2.075762         1.156208         0.188025
 C        -1.679732         1.543488         1.568183
 C        -1.303778         3.062043         1.650193
 C        -0.547106         3.492054         2.996484
 C         0.860965         3.827234         2.382023
 O         1.031992         2.853138         1.320854
 C        -0.127942         2.749562         0.559107
 H         0.601155         0.220497         1.574943
 H        -2.301558         1.659514        -0.678511
 H        -2.356408         0.090963         0.217333
 H        -2.153502         0.858588         2.287795
 H        -2.064138         3.940652         1.500263
 H        -0.965395         4.487079         3.325653
 H        -0.679386         2.604853         3.722722
 H         0.647490         4.736214         1.957277
 H         1.743608         3.752866         3.112836
 H        -0.129259         3.300385        -0.369057
