19
Iteration:   441charge 0 multiplicity 1
 O         0.375957         0.234124         0.628742
 C        -0.546338         1.251287         0.713317
 C        -1.928427         1.035743         0.247529
 C        -1.661872         1.685917         1.707498
 C        -1.349673         3.118898         1.586033
 C        -0.522211         3.808950         2.696462
 C         0.822785         3.151192         2.624289
 O         0.946571         3.077612         1.117394
 C        -0.286331         2.797034         0.594186
 H         1.155308         0.671768         0.956805
 H        -2.453016         1.584780        -0.492904
 H        -2.390498         0.101976         0.430157
 H        -2.176959         1.252649         2.521198
 H        -2.205141         3.707333         1.459841
 H        -0.474682         4.864466         2.457212
 H        -1.077659         3.729042         3.621077
 H         1.795098         3.560300         3.068217
 H         0.841910         2.155590         2.991526
 H        -0.359008         3.297734        -0.354915
