19
Iteration:   202
 O         0.333020         0.411178         0.541751
 C        -0.686241         1.221888         0.598464
 C        -2.091033         0.949527         0.244075
 C        -1.786807         1.586365         1.634795
 C        -1.337791         3.101010         1.616353
 C        -0.551219         3.762766         2.740572
 C         0.995448         3.609059         2.535893
 O         1.124987         2.728961         1.335545
 C        -0.220792         2.729869         0.645980
 H         0.968045         0.933125         1.001509
 H        -2.481347         1.501518        -0.588045
 H        -2.458559        -0.047280         0.402891
 H        -2.146106         1.019420         2.538219
 H        -2.092770         3.871474         1.213051
 H        -0.836541         4.791970         2.894241
 H        -0.771474         3.103250         3.580611
 H         1.436325         4.642549         2.253920
 H         1.429289         3.244985         3.453984
 H        -0.082925         3.260262        -0.348785
