19
Iteration:  3038charge 0 multiplicity 1
 O         0.321863         0.234250         0.550632
 C        -0.624095         1.229739         0.600166
 C        -2.094149         1.116512         0.291452
 C        -1.704558         1.622003         1.663900
 C        -1.259982         3.083900         1.583122
 C        -0.654291         3.508166         2.826982
 C         0.839368         3.680792         2.444022
 O         1.153211         2.920983         1.309688
 C        -0.121095         2.762170         0.585544
 H         0.858155         0.427535         1.325743
 H        -2.659973         1.757436        -0.355459
 H        -2.233802         0.120022         0.098649
 H        -2.089893         1.019704         2.523501
 H        -2.043788         3.826936         1.307938
 H        -1.095297         4.418632         3.207765
 H        -0.881104         2.752408         3.696301
 H         0.852739         4.723436         2.227758
 H         1.438453         3.335030         3.309724
 H        -0.163048         3.190557        -0.421315
