19
Iteration:  3299charge 0 multiplicity 1
 O         0.247139         0.113090         0.617462
 C        -0.648992         1.278319         0.546793
 C        -2.040498         1.196455         0.194519
 C        -1.655322         1.464564         1.632565
 C        -1.310276         3.011260         1.612250
 C        -0.628480         3.594839         2.902082
 C         0.811825         3.795050         2.464081
 O         1.154048         2.919666         1.354454
 C        -0.120006         2.784327         0.525165
 H         1.005624         0.429952         1.099529
 H        -2.658360         1.880264        -0.377043
 H        -2.503292         0.115785         0.137719
 H        -1.800110         0.754762         2.423533
 H        -2.069954         3.649176         1.201265
 H        -0.971378         4.544957         3.276234
 H        -0.728045         3.070800         3.809795
 H         1.091566         4.848854         2.162848
 H         1.560188         3.415723         3.292002
 H        -0.093339         3.357361        -0.473747
