19
Iteration:  4046charge 0 multiplicity 1
 O         0.203252         0.099851         0.598080
 C        -0.625863         1.214908         0.595067
 C        -1.983320         1.195581         0.084646
 C        -1.705747         1.517132         1.619696
 C        -1.396538         2.959536         1.653878
 C        -0.570064         3.524157         2.953859
 C         0.895842         3.914934         2.382806
 O         1.156520         2.982459         1.351796
 C        -0.121888         2.706813         0.642336
 H         1.036477         0.292788         1.092008
 H        -2.391732         1.928568        -0.515040
 H        -2.570336         0.306234         0.024415
 H        -2.257736         0.991825         2.356981
 H        -2.178842         3.728366         1.418142
 H        -1.145365         4.398137         3.408240
 H        -0.501592         2.590307         3.594899
 H         0.801267         4.975053         2.095283
 H         1.809182         3.952157         3.081107
 H        -0.114033         3.210958        -0.307416
