19
Iteration:  2277
 O         0.268803         0.099243         0.496405
 C        -0.530740         1.259721         0.622406
 C        -2.053763         1.017917         0.469221
 C        -1.587551         1.643546         1.741179
 C        -1.316171         3.076165         1.467044
 C        -0.623871         3.751419         2.689639
 C         0.717254         3.148994         2.658640
 O         1.038493         3.334800         1.224568
 C        -0.075447         2.844287         0.552681
 H         1.138735         0.448652         0.924803
 H        -2.621063         1.602088        -0.171221
 H        -2.175431        -0.177511         0.302237
 H        -1.498773         1.265615         2.829058
 H        -2.176557         3.650054         0.997317
 H        -0.617271         4.829431         2.494230
 H        -1.206626         3.479076         3.648886
 H         1.477631         3.705996         3.174350
 H         0.750662         2.062433         2.885103
 H        -0.195366         3.393081        -0.402439
