19
Iteration:  4730charge 0 multiplicity 1
 O         0.265973         0.115872         0.354873
 C        -0.557132         1.256718         0.514219
 C        -2.013019         1.168797         0.207394
 C        -1.667357         1.487322         1.611853
 C        -1.282441         2.962066         1.649323
 C        -0.572295         3.652395         3.011061
 C         0.817836         3.933350         2.419877
 O         1.096902         2.839803         1.496215
 C        -0.169154         2.736841         0.621112
 H         0.427635        -0.014433         1.318108
 H        -2.721933         1.977519        -0.115854
 H        -2.453462         0.182774        -0.189626
 H        -1.899938         0.832966         2.346473
 H        -2.078890         3.627656         1.375124
 H        -1.240122         4.517165         3.320565
 H        -0.670346         2.999651         3.967474
 H         0.794291         4.815891         1.707387
 H         1.578709         4.057573         3.158996
 H        -0.060697         3.428391        -0.293943
