19
Iteration:  1761
 O         0.441351         0.365198         0.500305
 C        -0.534939         1.294832         0.695663
 C        -1.977588         1.058003         0.408431
 C        -1.693169         1.623635         1.809859
 C        -1.390128         3.151128         1.538474
 C        -0.663579         3.858881         2.666292
 C         0.726524         3.162027         2.555858
 O         1.071206         2.886431         1.178744
 C        -0.223551         2.742115         0.601039
 H         1.320881         0.905355         0.710217
 H        -2.689353         1.415377        -0.485708
 H        -2.042852         0.031591         0.454877
 H        -2.037491         1.282543         2.710942
 H        -2.104744         3.822757         1.172851
 H        -0.568990         4.922658         2.544825
 H        -1.068807         3.641916         3.656693
 H         1.586545         3.818029         2.814691
 H         0.704605         2.221097         3.211986
 H        -0.072356         3.322735        -0.334966
