19
Iteration:  2285
 O         0.259643         0.201271         0.503061
 C        -0.538231         1.279757         0.619311
 C        -2.032318         0.954753         0.401671
 C        -1.581310         1.631148         1.694140
 C        -1.247893         3.102139         1.504799
 C        -0.666839         3.793893         2.726143
 C         0.798327         3.184794         2.697751
 O         1.045836         3.295241         1.218139
 C        -0.192857         2.738258         0.529823
 H         1.135069         0.336065         0.976577
 H        -2.736437         1.543406        -0.156954
 H        -2.207798        -0.063795         0.503631
 H        -1.630267         1.175022         2.671117
 H        -2.112250         3.581312         1.028548
 H        -0.512295         4.900419         2.472233
 H        -1.237915         3.645233         3.677017
 H         1.603835         3.593149         3.283124
 H         0.690287         2.084804         2.972029
 H        -0.196693         3.154593        -0.424811
