19
Iteration:   609
 O         0.213275         0.143566         0.500682
 C        -0.568743         1.246876         0.639285
 C        -2.020541         0.945427         0.411042
 C        -1.644041         1.687895         1.700183
 C        -1.338570         3.132449         1.532807
 C        -0.651092         3.728322         2.664453
 C         0.841121         3.246913         2.612826
 O         1.113224         3.254835         1.249175
 C        -0.056679         2.794009         0.565741
 H         0.931018         0.247068         1.271668
 H        -2.764912         1.574879        -0.248128
 H        -2.342622        -0.148329         0.388924
 H        -1.984933         1.208229         2.599574
 H        -2.016715         3.792244         1.067091
 H        -0.752098         4.858969         2.567740
 H        -1.115560         3.455932         3.679984
 H         1.459443         3.887834         3.169345
 H         0.873951         2.190671         2.985144
 H        -0.094715         3.282413        -0.370078
