19
Iteration:  3577
 O         0.189588         0.092928         0.447985
 C        -0.543469         1.277426         0.562924
 C        -2.029272         1.169889         0.255311
 C        -1.679485         1.506618         1.564270
 C        -1.287235         3.042176         1.629196
 C        -0.639123         3.575331         2.920232
 C         0.748343         3.904770         2.449721
 O         1.161776         2.883661         1.388064
 C        -0.057131         2.744245         0.694426
 H         0.650170         0.210158         1.271176
 H        -2.610099         1.586504        -0.596437
 H        -2.382232         0.066318         0.211355
 H        -1.847461         0.960830         2.452675
 H        -1.970563         3.807176         1.262885
 H        -1.231775         4.491281         3.065963
 H        -0.706786         2.932091         3.785292
 H         0.862551         4.775775         1.888968
 H         1.499086         3.748357         3.240136
 H         0.117113         3.241040        -0.240042
