19
Iteration:  3637
 O         0.313574         0.213825         0.541602
 C        -0.675394         1.161696         0.628763
 C        -2.014150         1.123743         0.124655
 C        -1.788477         1.562020         1.668395
 C        -1.302442         3.041966         1.584481
 C        -0.580440         3.517498         2.916548
 C         0.837479         3.804297         2.457662
 O         1.140288         2.863486         1.337388
 C        -0.133701         2.764784         0.668821
 H         1.115417         0.719676         0.853924
 H        -2.094193         1.874226        -0.588104
 H        -2.303436         0.111803         0.124951
 H        -2.379829         1.398798         2.591525
 H        -2.093747         3.717399         1.144300
 H        -1.085160         4.481562         3.140572
 H        -0.673244         2.901376         3.867253
 H         0.731713         4.878178         2.057678
 H         1.647664         3.837169         3.170517
 H        -0.089388         3.213436        -0.383453
