19
Iteration:  4402charge 0 multiplicity 1
 O         0.390231         0.224450         0.516716
 C        -0.592084         1.220724         0.631083
 C        -2.088839         1.133077         0.171906
 C        -1.779109         1.521715         1.600065
 C        -1.239392         3.077539         1.702664
 C        -0.655289         3.583617         2.873991
 C         0.898726         3.735640         2.414694
 O         1.092555         2.862905         1.379155
 C        -0.221042         2.702389         0.661491
 H         1.116408         0.863274         0.276170
 H        -2.658459         1.898273        -0.535468
 H        -2.690788         0.137670         0.085138
 H        -1.923167         0.983344         2.573634
 H        -2.054543         3.758541         1.297834
 H        -1.116849         4.553543         3.082065
 H        -0.852943         3.008340         3.818924
 H         1.061722         4.851086         2.156872
 H         1.663383         3.665628         3.192637
 H         0.009088         3.270022        -0.314879
