19
Iteration:  2002
 O         0.424695         0.337115         0.626205
 C        -0.575489         1.339337         0.624655
 C        -2.089176         1.039362         0.363345
 C        -1.651437         1.583266         1.723238
 C        -1.342481         3.062824         1.577219
 C        -0.701355         3.773688         2.707635
 C         0.810563         3.138324         2.602700
 O         1.070486         3.070829         1.174079
 C        -0.179116         2.796483         0.517694
 H         1.260085         0.740001         0.840959
 H        -2.720309         1.776782        -0.208255
 H        -2.286457        -0.056735         0.209519
 H        -1.735857         1.040761         2.748390
 H        -2.233421         3.693305         1.273035
 H        -0.554982         4.792255         2.469250
 H        -1.257745         3.690298         3.629745
 H         1.562214         3.775951         3.060393
 H         0.952393         2.112384         2.949441
 H        -0.015587         3.212642        -0.544284
