19
Iteration:  2725
 O         0.163068         0.045696         0.462493
 C        -0.589443         1.183340         0.621571
 C        -1.991063         1.292681         0.167100
 C        -1.570366         1.549157         1.717812
 C        -1.313167         2.997105         1.553689
 C        -0.581067         3.554131         2.970767
 C         0.783105         3.970275         2.416721
 O         1.088751         2.950552         1.414330
 C        -0.125663         2.626998         0.604636
 H         0.892730         0.032545         1.047072
 H        -2.396387         2.132296        -0.516619
 H        -2.343351         0.173005        -0.006510
 H        -2.054266         1.247203         2.755986
 H        -2.141375         3.571415         1.107689
 H        -1.285564         4.212524         3.423627
 H        -0.484330         2.674570         3.576661
 H         0.897869         5.016568         1.943743
 H         1.669301         3.914968         3.089008
 H         0.017339         3.089676        -0.442496
