19
Iteration:  4270charge 0 multiplicity 1
 O         0.227708         0.171835         0.684032
 C        -0.633015         1.254494         0.601514
 C        -2.043037         1.222339         0.082616
 C        -1.728996         1.417616         1.589081
 C        -1.273200         3.029482         1.671229
 C        -0.515479         3.491156         2.969520
 C         0.877177         3.945813         2.359590
 O         1.084312         2.970575         1.393109
 C        -0.123978         2.657944         0.634937
 H         0.726579        -0.029506        -0.154798
 H        -2.420044         2.180108        -0.437264
 H        -2.322773         0.202435        -0.182593
 H        -2.235667         0.822541         2.293179
 H        -2.107313         3.671615         1.244942
 H        -1.110994         4.117773         3.604214
 H        -0.355853         2.605979         3.571308
 H         0.573500         4.886736         1.948217
 H         1.729592         3.942250         2.959707
 H        -0.030725         3.189895        -0.334835
