19
Iteration:  4610
 O         0.353300         0.209389         0.636350
 C        -0.639693         1.191448         0.646950
 C        -1.993734         1.118793         0.108010
 C        -1.854954         1.564926         1.589608
 C        -1.370135         3.058419         1.659348
 C        -0.524627         3.439493         2.940429
 C         0.930577         3.717099         2.532897
 O         1.065752         3.030402         1.204904
 C        -0.183575         2.760220         0.599036
 H         1.003701         0.836029         1.014029
 H        -2.481336         1.832514        -0.638813
 H        -2.433116         0.066402         0.029491
 H        -2.308321         1.237488         2.435147
 H        -2.076711         3.787762         1.331200
 H        -0.927862         4.254268         3.574099
 H        -0.553545         2.509472         3.629702
 H         1.069776         4.758268         2.205554
 H         1.782073         3.478784         3.034022
 H         0.003669         3.290265        -0.357442
