19
Iteration:  1047
 O         0.282297         0.172301         0.587709
 C        -0.542891         1.293706         0.714310
 C        -2.006751         1.162857         0.292914
 C        -1.522288         1.578655         1.743051
 C        -1.380964         3.092399         1.552948
 C        -0.672153         3.762977         2.690103
 C         0.760928         3.242187         2.589312
 O         1.077924         3.101283         1.177545
 C        -0.139737         2.797023         0.541644
 H         0.988965         0.226662         1.332268
 H        -2.589754         1.790723        -0.282444
 H        -2.200581         0.159056         0.229139
 H        -1.766976         1.051734         2.636741
 H        -2.232165         3.521063         0.967004
 H        -0.663935         4.870246         2.682576
 H        -1.036944         3.356094         3.597655
 H         1.523620         3.899716         3.026549
 H         0.730295         2.276904         3.138076
 H        -0.316692         3.416431        -0.436212
