19
Iteration:  3255
 O         0.359392         0.253709         0.460569
 C        -0.580434         1.265531         0.654580
 C        -2.067746         1.034598         0.253132
 C        -1.834687         1.581049         1.640657
 C        -1.313124         3.110995         1.599427
 C        -0.547214         3.630767         2.809148
 C         0.902693         3.832953         2.499435
 O         1.034311         2.787978         1.403233
 C        -0.167195         2.676632         0.618708
 H         1.161172         0.583990         0.880266
 H        -2.540533         1.564839        -0.605816
 H        -2.237683        -0.070921         0.054312
 H        -2.490727         1.148740         2.363647
 H        -1.994628         3.886813         1.299440
 H        -1.106775         4.329763         3.370925
 H        -0.613915         2.797928         3.442250
 H         1.276087         4.784967         2.113284
 H         1.636015         3.610815         3.373388
 H         0.052839         3.197037        -0.378423
