19
Iteration:   421
 O         0.376471         0.264258         0.705510
 C        -0.610769         1.292864         0.594939
 C        -2.066201         1.020588         0.268154
 C        -1.728966         1.605106         1.634358
 C        -1.391508         3.133277         1.619856
 C        -0.561260         3.769551         2.812181
 C         0.895626         3.283978         2.558714
 O         1.065003         3.001024         1.173156
 C        -0.226944         2.778574         0.513241
 H         1.073082         0.728661         1.066859
 H        -2.564634         1.596531        -0.581617
 H        -2.313151        -0.013598         0.193865
 H        -1.862915         0.952142         2.467645
 H        -2.075935         3.867840         1.284819
 H        -0.759782         4.891513         2.812641
 H        -0.849776         3.512322         3.891190
 H         1.601155         4.136524         2.798238
 H         1.319787         2.405621         3.100195
 H        -0.203390         3.169415        -0.478965
