19
Iteration:  3910
 O         0.359084         0.185794         0.427918
 C        -0.640216         1.174939         0.613429
 C        -2.033693         1.049372         0.253758
 C        -1.819992         1.631334         1.679609
 C        -1.284753         3.124160         1.628086
 C        -0.700638         3.580526         2.906155
 C         0.863537         3.810850         2.449093
 O         1.163478         2.868524         1.314217
 C        -0.152466         2.679920         0.670088
 H         1.164990         0.465701         0.890394
 H        -2.390876         1.750024        -0.617414
 H        -2.554951         0.119801         0.051548
 H        -2.180950         1.176430         2.614222
 H        -1.835473         4.012919         1.264619
 H        -1.143282         4.489486         3.324270
 H        -0.758511         2.856188         3.760148
 H         1.138734         4.794228         2.154405
 H         1.656812         3.642945         3.140791
 H        -0.087369         3.296032        -0.229503
