19
Iteration:  4058charge 0 multiplicity 1
 O         0.238168         0.172843         0.562629
 C        -0.552398         1.269973         0.625021
 C        -2.017596         1.139007         0.085197
 C        -1.803965         1.461528         1.645191
 C        -1.408907         2.998018         1.678746
 C        -0.503506         3.542491         2.893920
 C         0.849195         3.949083         2.406392
 O         1.135466         2.889295         1.350105
 C        -0.113754         2.751742         0.605554
 H         0.576144         0.073694         1.501615
 H        -2.302220         1.996687        -0.449011
 H        -2.327888         0.166588        -0.236932
 H        -2.024781         0.997401         2.566498
 H        -2.294740         3.597783         1.260711
 H        -0.949699         4.336601         3.601802
 H        -0.382253         2.736327         3.689789
 H         1.016188         4.870218         1.878405
 H         1.576747         3.687105         3.253869
 H        -0.103612         3.293428        -0.320740
