19
Iteration:   877
 O         0.379718         0.317506         0.699203
 C        -0.642670         1.249700         0.573953
 C        -2.048948         1.078938         0.338768
 C        -1.642386         1.617434         1.657493
 C        -1.323634         3.114005         1.528800
 C        -0.592969         3.806676         2.743577
 C         0.779382         3.217258         2.615038
 O         1.062583         3.002331         1.200626
 C        -0.194891         2.709956         0.502094
 H         1.101334         0.896143         0.962762
 H        -2.611217         1.817271        -0.328662
 H        -2.278145         0.030382         0.375369
 H        -1.641262         1.072678         2.545822
 H        -2.105169         3.784552         1.163358
 H        -0.671796         4.936795         2.635142
 H        -1.140597         3.478797         3.665757
 H         1.612261         3.861623         3.003481
 H         0.917272         2.257021         3.107935
 H        -0.116209         3.317840        -0.414850
