19
Iteration:  2628charge 0 multiplicity 1
 O         0.308293         0.306695         0.543213
 C        -0.661292         1.303763         0.616741
 C        -2.046832         1.091222         0.254364
 C        -1.671438         1.533525         1.670509
 C        -1.307214         3.037568         1.561993
 C        -0.624661         3.634708         2.838354
 C         0.899084         3.664967         2.495360
 O         1.065719         2.856911         1.349724
 C        -0.173961         2.708479         0.556543
 H         1.083773         0.647340         1.045156
 H        -2.647721         1.759668        -0.450538
 H        -2.280609        -0.006627         0.238265
 H        -1.866810         1.050853         2.710050
 H        -2.099075         3.509595         0.958015
 H        -0.712589         4.741626         3.102555
 H        -1.041982         2.934597         3.707218
 H         1.315200         4.682252         2.259698
 H         1.566407         3.214589         3.243653
 H        -0.117083         3.251060        -0.395424
