19
Iteration:  2666charge 0 multiplicity 1
 O         0.337511         0.210046         0.477922
 C        -0.600816         1.244180         0.591252
 C        -2.023326         1.147641         0.173204
 C        -1.721466         1.563595         1.701073
 C        -1.333621         3.042332         1.591150
 C        -0.532647         3.650272         2.885881
 C         0.879651         3.814851         2.360666
 O         0.963230         2.749153         1.465859
 C        -0.161862         2.735622         0.656995
 H         1.134202         0.554782         1.022098
 H        -2.551893         1.641118        -0.627287
 H        -2.419346         0.193722         0.263699
 H        -1.975658         0.968364         2.490486
 H        -2.106556         3.733866         1.222549
 H        -0.921048         4.518231         3.435163
 H        -0.456733         2.865087         3.597495
 H         0.755239         4.817506         1.835992
 H         1.775947         3.771392         3.017049
 H         0.029409         3.293217        -0.244753
