19
Iteration:  1092charge 0 multiplicity 1
 O         0.370382         0.262992         0.489712
 C        -0.573283         1.299783         0.675481
 C        -2.079394         0.931580         0.443046
 C        -1.728705         1.620946         1.725038
 C        -1.313398         3.145793         1.467791
 C        -0.592723         3.846514         2.672323
 C         0.745043         3.140481         2.682076
 O         1.160304         3.137473         1.240471
 C        -0.180326         2.780438         0.539806
 H         1.229485         0.763605         0.724500
 H        -2.607833         1.383587        -0.371928
 H        -2.160332        -0.115434         0.456817
 H        -2.035184         1.242483         2.668628
 H        -2.175251         3.841345         1.216210
 H        -0.597128         4.948693         2.432161
 H        -1.174345         3.598662         3.512607
 H         1.419046         3.595379         3.404660
 H         0.485787         2.120694         3.005881
 H        -0.045459         3.133034        -0.570006
