19
Iteration:  4306charge 0 multiplicity 1
 O         0.180934         0.047918         0.573819
 C        -0.513186         1.229048         0.631804
 C        -1.944841         1.234082         0.131735
 C        -1.794669         1.553745         1.620341
 C        -1.354861         3.043532         1.673297
 C        -0.566399         3.473041         3.012116
 C         0.825136         3.874887         2.370188
 O         1.117087         3.017723         1.315066
 C        -0.109729         2.699667         0.671878
 H         1.118951         0.210405         0.309546
 H        -2.589267         1.811148        -0.634010
 H        -2.216487         0.152831        -0.050554
 H        -2.357463         0.884219         2.328031
 H        -2.182711         3.787539         1.411027
 H        -0.975630         4.310355         3.602292
 H        -0.415084         2.479028         3.572004
 H         0.802968         4.915307         1.965988
 H         1.821180         4.043027         2.890040
 H        -0.123168         3.152121        -0.311460
