19
Iteration:  1314
 O         0.398827         0.355065         0.604372
 C        -0.571008         1.304165         0.727607
 C        -2.056055         0.954861         0.390397
 C        -1.760568         1.670223         1.634000
 C        -1.409463         3.119368         1.550599
 C        -0.617376         3.717239         2.678791
 C         0.854238         3.150810         2.651031
 O         1.096493         3.079539         1.194059
 C        -0.164676         2.817313         0.480506
 H         1.121072         0.678560         1.080265
 H        -2.566013         1.269506        -0.530523
 H        -2.198636        -0.069534         0.520311
 H        -2.016733         1.219847         2.521690
 H        -2.252094         3.766093         1.116745
 H        -0.671052         4.803030         2.523862
 H        -1.041994         3.537871         3.713782
 H         1.651968         3.714272         3.068396
 H         0.852199         2.142710         3.076000
 H         0.046718         3.283810        -0.590572
