19
Iteration:  1392charge 0 multiplicity 1
 O         0.360127         0.247131         0.439637
 C        -0.583675         1.145554         0.754992
 C        -2.039133         0.943996         0.299248
 C        -1.812953         1.656560         1.682323
 C        -1.296365         3.154653         1.543131
 C        -0.598148         3.830095         2.789242
 C         0.901924         3.403303         2.612931
 O         1.040001         3.116052         1.255139
 C        -0.175195         2.684328         0.544219
 H         1.180681         0.221699         1.003413
 H        -2.611794         1.462728        -0.457083
 H        -2.290209        -0.172552         0.424778
 H        -2.248069         1.200418         2.624503
 H        -2.120848         3.719417         1.076299
 H        -0.632488         4.888778         2.717714
 H        -1.015233         3.486227         3.777790
 H         1.625747         4.111083         2.955373
 H         1.005277         2.490797         3.199365
 H         0.097223         3.064254        -0.525184
