19
Iteration:  2889
 O         0.300704         0.124426         0.512200
 C        -0.584011         1.190821         0.657044
 C        -2.026940         1.248516         0.233816
 C        -1.743866         1.580474         1.649553
 C        -1.317970         3.000995         1.605554
 C        -0.576313         3.555389         2.880829
 C         0.810557         3.790041         2.443227
 O         1.080289         2.972503         1.307331
 C        -0.097552         2.656046         0.597233
 H         0.943865         0.271236         1.236396
 H        -2.410788         2.184685        -0.364314
 H        -2.459553         0.295558         0.018231
 H        -2.212289         1.269115         2.622017
 H        -2.106479         3.611969         1.159873
 H        -1.068881         4.381975         3.332028
 H        -0.610606         2.719509         3.516575
 H         0.916586         4.828279         2.317796
 H         1.540622         3.575160         3.212185
 H        -0.042204         3.133292        -0.341451
