19
Iteration:  2452charge 0 multiplicity 1
 O         0.323456         0.249105         0.589263
 C        -0.559520         1.326499         0.644210
 C        -1.919385         1.006776         0.270777
 C        -1.605938         1.599206         1.734141
 C        -1.365144         3.112789         1.625938
 C        -0.604327         3.806145         2.797885
 C         0.794688         3.268006         2.511720
 O         1.040619         3.019238         1.168694
 C        -0.266531         2.802998         0.536254
 H         1.018204         0.571778         1.169088
 H        -2.528466         1.561913        -0.424289
 H        -2.086316        -0.006669         0.243592
 H        -2.091912         1.019931         2.484632
 H        -2.191443         3.804288         1.393990
 H        -0.787924         4.883429         2.568981
 H        -0.864890         3.665690         3.927870
 H         1.609551         3.709087         3.060075
 H         0.806014         2.232270         2.978023
 H        -0.242413         3.298112        -0.354801
