19
Iteration:  4762charge 0 multiplicity 1
 O         0.192554         0.160477         0.320367
 C        -0.588008         1.250373         0.566397
 C        -1.980232         1.160070         0.196326
 C        -1.624345         1.487867         1.684760
 C        -1.304026         2.987395         1.635929
 C        -0.609272         3.635582         2.935398
 C         0.834649         3.940845         2.391695
 O         1.100196         2.843085         1.502972
 C        -0.166537         2.669952         0.710440
 H         1.012318         0.303216         0.811120
 H        -2.470721         2.070570        -0.220333
 H        -2.387597         0.117333        -0.001929
 H        -1.957360         0.898049         2.447030
 H        -2.102419         3.621312         1.170132
 H        -1.301035         4.477606         3.259788
 H        -0.600073         2.756344         3.648684
 H         1.006296         4.928744         1.827057
 H         1.571192         3.938737         3.233670
 H        -0.051254         3.332485        -0.166105
