19
Iteration:  4570charge 0 multiplicity 1
 O         0.233016         0.133092         0.650013
 C        -0.580167         1.312205         0.658883
 C        -1.984783         1.181081         0.076010
 C        -1.690975         1.525599         1.686278
 C        -1.320717         3.070417         1.570574
 C        -0.562539         3.384186         2.982934
 C         0.810261         3.763852         2.405387
 O         1.122245         3.010393         1.281999
 C        -0.146986         2.805454         0.618292
 H         1.075364         0.172149         0.120561
 H        -2.623630         1.845008        -0.377063
 H        -2.249558         0.084005        -0.018153
 H        -2.244633         1.017155         2.595526
 H        -2.148141         3.791827         1.234200
 H        -0.885093         4.230335         3.505774
 H        -0.720473         2.574359         3.657087
 H         0.576164         4.846165         2.223960
 H         1.625432         3.606312         3.210638
 H        -0.223921         3.120050        -0.407670
