19
Iteration:   385
 O         0.363763         0.203385         0.610456
 C        -0.595473         1.264932         0.656362
 C        -2.054109         1.107577         0.324809
 C        -1.798293         1.708953         1.653660
 C        -1.340964         3.175544         1.518681
 C        -0.619226         3.542216         2.906483
 C         0.885801         3.519316         2.482383
 O         1.079698         2.920547         1.231474
 C        -0.161776         2.708675         0.510323
 H         1.152706         0.575807         0.916249
 H        -2.446516         1.750665        -0.375805
 H        -2.347582         0.047006         0.231623
 H        -1.953932         1.279646         2.655449
 H        -2.098644         3.877715         1.325781
 H        -0.882004         4.550159         3.124929
 H        -0.931536         2.821583         3.624995
 H         1.114521         4.677445         2.373348
 H         1.619222         3.084923         3.126265
 H         0.035367         3.118427        -0.475631
