19
Iteration:   384charge 0 multiplicity 1
 O         0.368312         0.197670         0.606893
 C        -0.595675         1.257953         0.655128
 C        -2.049358         1.109510         0.323139
 C        -1.800533         1.716075         1.645702
 C        -1.342114         3.182710         1.526635
 C        -0.618996         3.540012         2.913198
 C         0.886937         3.528410         2.473567
 O         1.073396         2.919142         1.233098
 C        -0.158100         2.703954         0.515478
 H         1.154789         0.541939         0.912204
 H        -2.466441         1.747448        -0.380832
 H        -2.348929         0.050954         0.243812
 H        -1.942982         1.287668         2.666225
 H        -2.139603         3.888485         1.326542
 H        -0.868237         4.537207         3.166185
 H        -0.936342         2.830738         3.635041
 H         1.117228         4.668780         2.348182
 H         1.587654         3.092912         3.134426
 H         0.058415         3.114295        -0.495560
