19
Iteration:  1200charge 0 multiplicity 1
 O         0.373884         0.071761         0.498711
 C        -0.533300         1.174807         0.748002
 C        -1.920756         1.153411         0.327384
 C        -1.702829         1.704391         1.721897
 C        -1.243909         3.154185         1.569676
 C        -0.667890         3.784607         2.808755
 C         0.750824         3.263558         2.591666
 O         0.995782         3.234424         1.108683
 C        -0.160256         2.674935         0.536393
 H         1.236143         0.139092         1.108919
 H        -2.538365         1.730670        -0.214531
 H        -2.463354         0.229816         0.614570
 H        -2.184720         1.182516         2.621303
 H        -2.044733         3.723889         0.983407
 H        -1.075175         4.837430         2.833782
 H        -1.043468         3.252437         3.679038
 H         1.485249         3.893144         3.152735
 H         0.705968         2.274199         3.000572
 H        -0.098358         3.025198        -0.521514
