19
Iteration:  2090charge 0 multiplicity 1
 O         0.331944         0.193260         0.531433
 C        -0.553430         1.234590         0.666529
 C        -1.975432         1.133862         0.233996
 C        -1.564994         1.529399         1.750275
 C        -1.378101         3.061061         1.624044
 C        -0.610212         3.876281         2.762260
 C         0.758157         3.272631         2.588804
 O         1.059812         3.113763         1.212500
 C        -0.235414         2.722407         0.540776
 H         1.085120         0.359231         1.152657
 H        -2.412631         2.059186        -0.337231
 H        -2.498722         0.286224         0.078726
 H        -1.565167         0.936290         2.631198
 H        -2.323772         3.558397         1.269083
 H        -0.652832         4.958168         2.589864
 H        -1.061146         3.664849         3.757399
 H         1.359771         4.035045         3.036809
 H         0.918811         2.329731         3.129068
 H        -0.251979         3.037238        -0.583042
