19
Iteration:  1362charge 0 multiplicity 1
 O         0.285424         0.126662         0.579248
 C        -0.498258         1.250418         0.685095
 C        -1.929851         1.162709         0.335938
 C        -1.592400         1.602561         1.803491
 C        -1.390962         3.081670         1.588713
 C        -0.655042         3.769927         2.687157
 C         0.712912         3.238889         2.556912
 O         1.104316         3.179509         1.191459
 C        -0.177257         2.765720         0.499773
 H         1.252012         0.406422         0.794896
 H        -2.509620         1.929181        -0.269259
 H        -2.447920         0.074643         0.190697
 H        -2.115279         1.027166         2.696872
 H        -2.333053         3.475312         1.294308
 H        -0.649279         4.840919         2.441607
 H        -1.044100         3.665424         3.677585
 H         1.417865         3.919843         3.136357
 H         0.773356         2.204015         2.940778
 H        -0.054957         3.198513        -0.489873
