19
Iteration:   746
 O         0.284893         0.075124         0.569299
 C        -0.530599         1.260711         0.641379
 C        -2.076795         1.079362         0.347452
 C        -1.679264         1.610902         1.692777
 C        -1.315126         3.098558         1.559411
 C        -0.587810         3.759419         2.748727
 C         0.810747         3.212013         2.643010
 O         1.053039         3.332519         1.215481
 C        -0.126112         2.737361         0.496396
 H         1.122089         0.123534         1.209139
 H        -2.542882         1.752766        -0.328581
 H        -2.429641         0.006349         0.315727
 H        -2.218610         1.186953         2.587742
 H        -1.872515         3.928148         1.058333
 H        -0.673898         4.861761         2.528659
 H        -1.165845         3.498332         3.633075
 H         1.586484         3.901165         3.149091
 H         0.931694         2.172024         2.973871
 H         0.065901         3.052993        -0.603680
