19
Iteration:  1422
 O         0.321853         0.255395         0.619747
 C        -0.574037         1.307811         0.584878
 C        -1.972018         1.045996         0.342854
 C        -1.674175         1.614449         1.676288
 C        -1.343018         3.081093         1.566487
 C        -0.690685         3.734462         2.764691
 C         0.911457         3.411804         2.538107
 O         1.028086         2.883575         1.244136
 C        -0.215742         2.835996         0.528032
 H         1.182748         0.463708         0.866928
 H        -2.681375         1.514600        -0.293933
 H        -2.124538         0.000160         0.329730
 H        -1.712547         1.106754         2.593188
 H        -2.209382         3.735192         1.096829
 H        -0.734915         4.874982         2.747681
 H        -1.103719         3.407092         3.780706
 H         1.513184         4.312952         2.736037
 H         1.251588         2.645479         3.324279
 H        -0.134199         3.431361        -0.390641
