19
Iteration:   611
 O         0.233476         0.140994         0.510293
 C        -0.566556         1.253152         0.636213
 C        -2.033745         0.954464         0.413093
 C        -1.649224         1.697817         1.697479
 C        -1.327513         3.134807         1.538049
 C        -0.655945         3.722473         2.693485
 C         0.830662         3.242465         2.597167
 O         1.106454         3.258026         1.245191
 C        -0.047868         2.769587         0.558699
 H         0.887320         0.277971         1.217580
 H        -2.769945         1.537952        -0.264052
 H        -2.327409        -0.088488         0.370187
 H        -1.939394         1.257773         2.603217
 H        -2.092985         3.794027         1.081465
 H        -0.764422         4.894986         2.576405
 H        -1.131022         3.486890         3.691190
 H         1.480094         3.843813         3.156035
 H         0.821355         2.169636         2.928221
 H        -0.045199         3.250442        -0.431827
