19
Iteration:  2149charge 0 multiplicity 1
 O         0.322681         0.272881         0.533653
 C        -0.543140         1.310294         0.653424
 C        -2.076000         1.009672         0.410825
 C        -1.671070         1.597860         1.657631
 C        -1.320876         3.082512         1.460199
 C        -0.651916         3.690433         2.792667
 C         0.798514         3.276029         2.616484
 O         1.084825         3.162544         1.191956
 C        -0.122283         2.776079         0.553119
 H         1.164409         0.465664         1.056516
 H        -2.781419         1.506246        -0.268489
 H        -2.289591        -0.198399         0.536448
 H        -2.025545         1.299691         2.700081
 H        -2.085763         3.652900         0.946848
 H        -0.828446         4.763054         2.913297
 H        -1.003170         3.249609         3.729261
 H         1.571035         4.007146         3.018007
 H         1.029091         2.321332         3.169177
 H        -0.077303         3.159839        -0.519611
