19
Iteration:  2519charge 0 multiplicity 1
 O         0.433837         0.288907         0.616788
 C        -0.481804         1.347846         0.658653
 C        -1.964898         0.951149         0.352879
 C        -1.670927         1.674476         1.697992
 C        -1.394533         3.242769         1.583707
 C        -0.586567         3.752484         2.769763
 C         0.786961         3.068267         2.556570
 O         0.990349         3.040207         1.173738
 C        -0.335173         2.839760         0.502115
 H         1.263561         0.621561         0.928250
 H        -2.472088         1.363983        -0.526419
 H        -2.125351        -0.027137         0.426698
 H        -2.050890         1.283847         2.632592
 H        -2.166662         3.861698         1.085599
 H        -0.282164         4.823957         2.602168
 H        -1.173355         3.637241         3.766437
 H         1.659662         3.535482         3.062951
 H         0.773882         2.059752         3.024401
 H        -0.301073         3.158980        -0.481446
