19
Iteration:  4528charge 0 multiplicity 1
 O         0.323464         0.148476         0.608147
 C        -0.604868         1.177099         0.580409
 C        -2.074309         1.195732         0.097400
 C        -1.706840         1.513050         1.537786
 C        -1.266037         3.035183         1.706482
 C        -0.521887         3.503808         2.989334
 C         0.797986         3.915331         2.391025
 O         1.093568         2.951878         1.414331
 C        -0.159021         2.690413         0.674918
 H         0.403166        -0.164918        -0.325890
 H        -2.498056         1.914232        -0.518910
 H        -2.420471         0.168598        -0.090622
 H        -2.373421         0.939476         2.282102
 H        -1.933294         3.855733         1.364278
 H        -1.071766         4.429222         3.382859
 H        -0.394421         2.653026         3.648876
 H         0.636308         4.881821         1.884362
 H         1.651918         4.031679         3.150707
 H        -0.095092         3.408233        -0.218607
