19
Iteration:  2441
 O         0.294070         0.205675         0.557394
 C        -0.543061         1.288042         0.685978
 C        -1.939695         1.026069         0.249370
 C        -1.637745         1.513589         1.721907
 C        -1.411024         3.128062         1.643065
 C        -0.596113         3.865849         2.741916
 C         0.822932         3.219472         2.598775
 O         1.029125         3.141295         1.118909
 C        -0.193749         2.807672         0.610616
 H         1.054897         0.186528         1.232323
 H        -2.518152         1.712964        -0.321433
 H        -2.025151         0.009201         0.039510
 H        -1.987323         1.072228         2.649809
 H        -2.272740         3.587645         1.133087
 H        -0.445027         4.961813         2.625970
 H        -0.981537         3.600118         3.818960
 H         1.665817         3.849318         2.817465
 H         0.768679         2.227636         3.137667
 H        -0.300244         3.162090        -0.347518
