19
Iteration:    94charge 0 multiplicity 1
 O         0.224785         0.026398         0.622094
 C        -0.495346         1.270479         0.703627
 C        -1.867508         1.097319         0.322469
 C        -1.732911         1.620020         1.695179
 C        -1.384514         3.123593         1.575896
 C        -0.529773         3.771632         2.780638
 C         0.839285         3.181064         2.591519
 O         1.016527         3.320407         1.139097
 C        -0.244676         2.779194         0.524265
 H         1.059075         0.168072         0.957068
 H        -2.284799         1.767183        -0.484281
 H        -2.187309         0.089616         0.275851
 H        -2.113753         0.949791         2.515532
 H        -2.217215         3.854792         1.227280
 H        -0.403703         4.856165         2.608782
 H        -0.967042         3.668898         3.797626
 H         1.702029         3.805683         2.973501
 H         0.866380         2.072379         2.756463
 H        -0.183897         3.204590        -0.497923
