19
Iteration:  4461charge 0 multiplicity 1
 O         0.209831         0.144695         0.530047
 C        -0.576152         1.283905         0.462008
 C        -2.070875         1.097075         0.208796
 C        -1.628123         1.509630         1.616911
 C        -1.231359         3.018776         1.683620
 C        -0.652284         3.596529         2.948799
 C         0.766680         3.892805         2.484842
 O         1.175814         2.935692         1.452473
 C        -0.098681         2.738389         0.590237
 H         0.374355        -0.453211        -0.212328
 H        -2.596306         1.798766        -0.389732
 H        -2.335910         0.091249         0.029846
 H        -2.027833         0.866764         2.390516
 H        -2.085016         3.622745         1.337057
 H        -1.119737         4.509885         3.247834
 H        -0.671585         2.841192         3.708355
 H         0.784347         4.866958         2.025091
 H         1.578874         3.797243         3.266411
 H        -0.024575         3.223459        -0.422461
