19
Iteration:    29charge 0 multiplicity 1
 O         0.386844         0.503366         0.679198
 C        -0.635478         1.340880         0.663730
 C        -1.967006         0.883597         0.313372
 C        -1.827973         1.695545         1.615571
 C        -1.342013         3.200558         1.559470
 C        -0.515536         3.699260         2.794686
 C         0.910818         3.179080         2.533624
 O         1.036142         2.762235         1.187784
 C        -0.250936         2.884134         0.532981
 H         1.116212         1.035088         0.939151
 H        -2.569618         1.166723        -0.648271
 H        -2.202843        -0.127409         0.630822
 H        -2.225357         1.200344         2.556691
 H        -2.053897         3.964710         1.169267
 H        -0.514797         4.830231         2.742714
 H        -0.977250         3.479130         3.794013
 H         1.568166         4.054958         2.703170
 H         0.990596         2.244925         3.164511
 H        -0.210895         3.403750        -0.454599
