19
Iteration:  3044charge 0 multiplicity 1
 O         0.348579         0.228499         0.564837
 C        -0.602178         1.261356         0.605761
 C        -2.080259         1.161038         0.301559
 C        -1.745616         1.637060         1.622634
 C        -1.285924         3.082249         1.624519
 C        -0.655204         3.494437         2.863904
 C         0.799875         3.668935         2.451084
 O         1.193228         2.897200         1.261525
 C        -0.158801         2.705830         0.583179
 H         1.151444         0.364246         1.170729
 H        -2.665263         1.822437        -0.408123
 H        -2.378017        -0.000297         0.108382
 H        -2.022798         1.138151         2.574480
 H        -2.046437         3.812436         1.331538
 H        -1.127534         4.463305         3.192449
 H        -0.863386         2.844839         3.635090
 H         0.915403         4.783219         2.167633
 H         1.368776         3.548874         3.421101
 H        -0.106539         3.172455        -0.418238
