19
Iteration:  3384charge 0 multiplicity 1
 O         0.258590         0.207080         0.640963
 C        -0.597462         1.290664         0.560776
 C        -2.120912         1.134805         0.146308
 C        -1.708927         1.551610         1.600940
 C        -1.363954         3.016375         1.668829
 C        -0.572108         3.451213         2.868856
 C         0.881927         3.930138         2.362616
 O         1.100016         2.810003         1.420674
 C        -0.135857         2.734421         0.627822
 H         1.066711         0.680013         1.029352
 H        -2.223253         1.893496        -0.589187
 H        -2.587823         0.085206        -0.042735
 H        -1.821970         0.823847         2.379231
 H        -1.878196         3.970284         1.379072
 H        -0.956235         4.491734         3.255599
 H        -0.375457         2.590219         3.562377
 H         0.952135         4.874664         1.767489
 H         1.644887         3.768430         3.123635
 H        -0.007595         3.324274        -0.244628
