19
Iteration:  3987
 O         0.274848         0.199019         0.571526
 C        -0.580462         1.272999         0.647916
 C        -2.055017         1.079468         0.115704
 C        -1.830244         1.620031         1.629120
 C        -1.287906         3.026334         1.599007
 C        -0.553459         3.455987         2.892250
 C         0.838426         3.875180         2.406179
 O         1.136473         2.926630         1.342528
 C        -0.153886         2.702478         0.645628
 H         0.776852         0.166792         1.423453
 H        -2.612877         1.881506        -0.480891
 H        -2.348002         0.032252        -0.009341
 H        -2.042811         1.098210         2.615401
 H        -1.912462         3.800673         1.248864
 H        -1.048327         4.133154         3.560021
 H        -0.276750         2.658517         3.616474
 H         0.884795         5.002121         2.038483
 H         1.643781         3.644087         3.064531
 H        -0.025148         3.276067        -0.301706
