19
Iteration:  3052
 O         0.358299         0.205715         0.572626
 C        -0.553063         1.296965         0.653980
 C        -2.062990         1.163709         0.234625
 C        -1.783544         1.630745         1.628067
 C        -1.374303         3.060358         1.591206
 C        -0.636827         3.513336         2.941129
 C         0.790164         3.721697         2.492568
 O         1.167243         2.860160         1.227511
 C        -0.165206         2.662629         0.586349
 H         1.257444         0.612914         0.843141
 H        -2.420372         1.855131        -0.507490
 H        -2.560568         0.226285         0.382868
 H        -2.012158         1.220506         2.545195
 H        -2.075338         3.771062         1.151487
 H        -0.969600         4.512010         3.228890
 H        -0.688763         2.721894         3.755498
 H         1.051053         4.699520         2.112383
 H         1.586998         3.576803         3.169740
 H         0.002238         3.243988        -0.387455
