19
Iteration:   641charge 0 multiplicity 1
 O         0.385328         0.230391         0.676263
 C        -0.540852         1.274179         0.716334
 C        -1.924169         1.100301         0.334341
 C        -1.603581         1.690944         1.730250
 C        -1.348559         3.209138         1.521507
 C        -0.603444         3.723788         2.700360
 C         0.764250         3.080188         2.570918
 O         0.983893         3.084699         1.135403
 C        -0.246943         2.769410         0.528731
 H         1.178182         0.666239         0.879915
 H        -2.325752         1.964364        -0.370049
 H        -2.531374         0.142819         0.228469
 H        -2.094736         1.259702         2.616840
 H        -2.204664         3.725686         1.165426
 H        -0.548173         4.833472         2.704544
 H        -1.195343         3.428438         3.626601
 H         1.588297         3.590669         3.038210
 H         0.726336         2.035855         2.945321
 H        -0.306433         3.237963        -0.420398
