19
Iteration:  2314charge 0 multiplicity 1
 O         0.448024         0.296989         0.515579
 C        -0.549201         1.309683         0.653586
 C        -1.961428         1.016001         0.338766
 C        -1.723902         1.657495         1.712669
 C        -1.405962         3.106161         1.618649
 C        -0.636462         3.801862         2.700909
 C         0.827630         3.296293         2.578019
 O         1.031702         2.880662         1.190824
 C        -0.271949         2.773285         0.618172
 H         1.329363         0.594418         0.937641
 H        -2.556113         1.801729        -0.366656
 H        -2.235173         0.016589         0.183832
 H        -1.850134         1.261941         2.667873
 H        -2.281774         3.622436         1.219691
 H        -0.639374         4.868162         2.547487
 H        -0.862784         3.706829         3.718919
 H         1.621146         4.019419         2.931042
 H         0.922876         2.441259         3.214374
 H        -0.318363         3.389518        -0.378440
