19
Iteration:  3362charge 0 multiplicity 1
 O         0.341417         0.171793         0.494972
 C        -0.621515         1.227452         0.705697
 C        -2.023958         1.207702         0.182905
 C        -1.790661         1.604550         1.652959
 C        -1.276629         3.078820         1.564837
 C        -0.554475         3.494466         2.933106
 C         0.826657         3.897825         2.363702
 O         1.089330         2.826731         1.381807
 C        -0.152845         2.658340         0.658014
 H         0.992623         0.591832         1.057206
 H        -2.654571         1.820851        -0.447304
 H        -2.171291         0.055572         0.194702
 H        -2.476923         1.096108         2.298740
 H        -1.919858         3.950572         1.233695
 H        -1.175291         4.377997         3.438750
 H        -0.507561         2.508986         3.437697
 H         0.697100         4.920511         1.926471
 H         1.642605         3.664375         3.033318
 H        -0.043180         3.095828        -0.300737
