19
Iteration:   439
 O         0.379415         0.231877         0.638620
 C        -0.548528         1.242261         0.701031
 C        -1.937216         1.030444         0.241756
 C        -1.669697         1.675063         1.697319
 C        -1.327965         3.129157         1.584956
 C        -0.525338         3.799329         2.724659
 C         0.827081         3.173293         2.632171
 O         0.948030         3.065253         1.105380
 C        -0.297760         2.809902         0.586558
 H         1.122176         0.655694         0.959283
 H        -2.412198         1.601460        -0.475267
 H        -2.411806         0.055842         0.419980
 H        -2.192063         1.243529         2.543314
 H        -2.262909         3.732424         1.434200
 H        -0.393031         4.815615         2.441156
 H        -1.082196         3.714680         3.604311
 H         1.789412         3.620797         3.055546
 H         0.880720         2.203690         3.092383
 H        -0.373173         3.389516        -0.372485
