19
Iteration:  1896
 O         0.310694         0.226364         0.694905
 C        -0.642739         1.288970         0.635425
 C        -1.920370         1.018901         0.193564
 C        -1.672665         1.621773         1.657842
 C        -1.339685         3.102480         1.594947
 C        -0.625212         3.674703         2.864402
 C         0.936102         3.423729         2.522865
 O         0.988634         2.977727         1.167355
 C        -0.265108         2.849465         0.517973
 H         1.117579         0.596905         1.182521
 H        -2.415471         1.684311        -0.511742
 H        -2.074909        -0.101500         0.238590
 H        -1.854276         1.009658         2.576548
 H        -2.114752         3.763333         1.189140
 H        -0.925065         4.743664         3.157003
 H        -0.773921         3.087889         3.832315
 H         1.556684         4.308092         2.593692
 H         1.373642         2.572148         3.128215
 H        -0.179407         3.408842        -0.399109
