19
Iteration:  2003charge 0 multiplicity 1
 O         0.424900         0.338548         0.622038
 C        -0.568924         1.340459         0.616507
 C        -2.086446         1.029925         0.377531
 C        -1.659880         1.589273         1.724211
 C        -1.351745         3.066150         1.569628
 C        -0.700681         3.769763         2.708848
 C         0.812459         3.145071         2.606314
 O         1.069787         3.060873         1.170836
 C        -0.176582         2.798139         0.521760
 H         1.275034         0.779462         0.867960
 H        -2.712996         1.806051        -0.211151
 H        -2.279247        -0.022146         0.209593
 H        -1.731595         1.059630         2.712485
 H        -2.207509         3.720638         1.295530
 H        -0.572523         4.760852         2.477669
 H        -1.255760         3.662420         3.627157
 H         1.554490         3.786118         3.059925
 H         0.951182         2.103377         2.945543
 H        -0.003495         3.191041        -0.537959
