19
Iteration:  4084
 O         0.323726         0.218320         0.509318
 C        -0.548984         1.221575         0.585770
 C        -2.004531         1.134566         0.152567
 C        -1.679787         1.647277         1.626450
 C        -1.288677         3.058879         1.653885
 C        -0.594604         3.483272         2.991746
 C         0.820214         3.861348         2.380385
 O         1.039618         2.833868         1.359130
 C        -0.150389         2.695882         0.635885
 H         0.625314         0.013829         1.442798
 H        -2.520534         1.798314        -0.664231
 H        -2.610165         0.203347         0.382035
 H        -2.217088         1.270770         2.568069
 H        -2.044595         3.737246         1.176242
 H        -1.028728         4.424861         3.316208
 H        -0.707789         2.764872         3.781035
 H         0.664391         4.699572         1.783315
 H         1.688379         3.797022         2.938601
 H        -0.143298         3.311694        -0.307831
