19
Iteration:  4973
 O         0.383467         0.170904         0.354325
 C        -0.549426         1.184683         0.656711
 C        -2.028176         1.206697         0.165920
 C        -1.811504         1.562968         1.601883
 C        -1.360188         3.035429         1.737185
 C        -0.566480         3.560282         3.016988
 C         0.848423         3.945298         2.332769
 O         1.033877         2.827317         1.406847
 C        -0.130706         2.646786         0.690334
 H         1.209324         0.458429         0.829790
 H        -2.231856         1.884061        -0.673180
 H        -2.644678         0.250415         0.227344
 H        -2.231784         0.950309         2.441256
 H        -2.122323         3.729063         1.278042
 H        -1.054369         4.422404         3.438776
 H        -0.461599         2.774668         3.839004
 H         0.722149         4.842562         1.883293
 H         1.685433         3.980832         3.023445
 H        -0.218700         3.116589        -0.255204
