19
Iteration:  2989charge 0 multiplicity 1
 O         0.270950         0.181603         0.498219
 C        -0.555923         1.224021         0.627760
 C        -2.040605         1.128015         0.186644
 C        -1.713496         1.582392         1.657905
 C        -1.300958         3.013740         1.616175
 C        -0.615510         3.648908         2.946711
 C         0.863655         3.759735         2.423185
 O         1.076213         2.843733         1.328348
 C        -0.120039         2.744335         0.675835
 H         1.227585         0.252978         0.820954
 H        -2.467318         1.857016        -0.604059
 H        -2.575902         0.072379         0.198502
 H        -2.205013         1.114722         2.456975
 H        -2.035352         3.645596         1.093301
 H        -0.993554         4.699121         3.063803
 H        -0.833647         3.105830         3.803692
 H         0.819005         4.763539         1.942854
 H         1.563304         3.679875         3.279918
 H        -0.105998         3.276368        -0.256200
