19
Iteration:  4194
 O         0.229305         0.211623         0.592491
 C        -0.553139         1.308347         0.628855
 C        -2.058897         1.108777         0.256296
 C        -1.685838         1.453728         1.571948
 C        -1.348569         3.074639         1.581558
 C        -0.652044         3.526678         2.907478
 C         0.886385         3.755129         2.464574
 O         1.159413         2.960933         1.282774
 C        -0.101708         2.725115         0.727197
 H         0.405774        -0.171378        -0.252505
 H        -2.413173         1.931276        -0.533812
 H        -2.249289         0.058161        -0.101306
 H        -2.155576         1.045334         2.464973
 H        -2.123718         3.722632         1.006314
 H        -1.016482         4.469469         3.247981
 H        -0.741133         2.966864         3.826393
 H         0.920638         4.933683         2.253587
 H         1.628699         3.625983         3.222672
 H        -0.153639         3.320874        -0.151534
