19
Iteration:  2740
 O         0.102693         0.028748         0.509089
 C        -0.543822         1.257106         0.635804
 C        -1.941807         1.183324         0.196579
 C        -1.631020         1.508128         1.649833
 C        -1.297736         3.052826         1.648507
 C        -0.601546         3.540974         2.845535
 C         0.813070         3.911312         2.417977
 O         1.067523         2.967486         1.360419
 C        -0.071346         2.742680         0.641645
 H         0.822815         0.121101         1.178925
 H        -2.304841         1.975396        -0.387197
 H        -2.426933         0.298763        -0.026817
 H        -1.980300         0.761201         2.236028
 H        -2.157909         3.680211         1.358321
 H        -0.985901         4.391210         3.489395
 H        -0.464242         2.637777         3.557631
 H         0.729828         4.869831         2.035815
 H         1.533610         3.811197         3.199716
 H        -0.050805         3.248253        -0.351921
