19
Iteration:  4544charge 0 multiplicity 1
 O         0.232310         0.126168         0.670397
 C        -0.604915         1.280719         0.490999
 C        -2.016507         1.179845         0.100439
 C        -1.731580         1.538528         1.615944
 C        -1.307027         2.926401         1.675115
 C        -0.558747         3.470955         2.950149
 C         0.844117         3.962489         2.423595
 O         1.095854         2.936099         1.367189
 C        -0.100275         2.780891         0.612653
 H         0.862826        -0.032837        -0.096439
 H        -2.434152         1.980545        -0.693182
 H        -2.510634         0.212702         0.199921
 H        -1.903985         0.917942         2.419461
 H        -2.157037         3.574143         1.461335
 H        -1.159907         4.102889         3.644337
 H        -0.393652         2.686332         3.771681
 H         0.883649         5.059497         2.128699
 H         1.553400         3.717660         3.145619
 H        -0.140473         3.201413        -0.369687
