19
Iteration:  3753charge 0 multiplicity 1
 O         0.216825         0.114311         0.556258
 C        -0.539314         1.272292         0.618587
 C        -1.937113         1.126845         0.177088
 C        -1.714984         1.599129         1.637992
 C        -1.305172         3.048147         1.591601
 C        -0.630605         3.479523         2.886149
 C         0.811609         3.792387         2.454887
 O         1.172988         2.927196         1.286875
 C        -0.219325         2.799555         0.638933
 H         0.895293         0.218725         1.284900
 H        -2.502457         1.989777        -0.331161
 H        -2.323283         0.118214         0.306021
 H        -2.253225         0.942989         2.410772
 H        -2.000600         3.802520         1.241553
 H        -1.113218         4.364728         3.391814
 H        -0.719827         2.765124         3.690430
 H         0.958418         4.835820         2.130329
 H         1.600429         3.651038         3.253014
 H        -0.205451         3.322463        -0.303991
