19
Iteration:  1074charge 0 multiplicity 1
 O         0.293047         0.161959         0.528686
 C        -0.537409         1.264515         0.588954
 C        -1.971430         0.985622         0.400182
 C        -1.525570         1.695555         1.694792
 C        -1.345314         3.203564         1.521716
 C        -0.632529         3.829600         2.739589
 C         0.729353         3.110503         2.630811
 O         0.964334         3.169486         1.254011
 C        -0.122444         2.790627         0.504706
 H         1.110784         0.279664         1.120081
 H        -2.727620         1.451564        -0.351395
 H        -2.272997        -0.106793         0.704158
 H        -1.650248         1.208930         2.710404
 H        -2.111463         3.701027         0.946605
 H        -0.375940         4.901610         2.540212
 H        -1.245102         3.706472         3.698344
 H         1.587891         3.674179         3.080812
 H         0.652788         2.078774         3.095714
 H        -0.073744         3.348414        -0.411744
