19
Iteration:  4353
 O         0.408078         0.137731         0.528462
 C        -0.580415         1.276205         0.552832
 C        -2.043039         1.087893         0.233557
 C        -1.755917         1.646304         1.610281
 C        -1.339725         3.135856         1.627010
 C        -0.543195         3.464274         2.984270
 C         0.776279         3.771194         2.455598
 O         1.069535         2.864589         1.293622
 C        -0.172511         2.789190         0.584025
 H         0.364441         0.016316         1.467131
 H        -2.453632         1.820080        -0.382329
 H        -2.414579         0.122147        -0.015038
 H        -1.964174         1.154695         2.571830
 H        -2.045759         3.770798         1.120134
 H        -0.936094         4.456670         3.469772
 H        -0.451973         2.573954         3.688590
 H         0.794790         4.862079         2.142226
 H         1.678857         3.842050         3.150282
 H        -0.156412         3.382636        -0.309276
