19
Iteration:  1329
 O         0.320505         0.212248         0.677588
 C        -0.582758         1.306945         0.515728
 C        -1.962681         0.958289         0.307984
 C        -1.610335         1.623990         1.701146
 C        -1.317542         3.171547         1.510277
 C        -0.546657         3.795439         2.743606
 C         0.752371         3.135713         2.625575
 O         1.009742         3.161500         1.226882
 C        -0.240384         2.803165         0.536821
 H         1.164892         0.635145         1.043612
 H        -2.675677         1.518962        -0.348611
 H        -2.259332        -0.181955         0.380614
 H        -1.810769         1.058632         2.693023
 H        -2.161547         3.753969         1.256554
 H        -0.380370         4.832025         2.479256
 H        -1.113544         3.744378         3.657038
 H         1.520905         3.812826         3.076060
 H         0.899645         2.107538         3.028919
 H        -0.223362         3.302449        -0.402585
