19
Iteration:   100charge 0 multiplicity 1
 O         0.226168        -0.004051         0.589558
 C        -0.491285         1.210506         0.749980
 C        -1.966817         1.032907         0.276033
 C        -1.702320         1.614184         1.668431
 C        -1.379928         3.150062         1.601393
 C        -0.526855         3.817160         2.768062
 C         0.863893         3.168921         2.592110
 O         0.995423         3.362720         1.154503
 C        -0.175057         2.837167         0.534136
 H         1.088091         0.127417         1.113571
 H        -2.256421         1.733574        -0.462527
 H        -2.389976        -0.005083         0.189200
 H        -2.039038         1.015620         2.493473
 H        -2.194807         3.742302         1.288948
 H        -0.391831         4.896225         2.650310
 H        -0.950591         3.729239         3.760186
 H         1.663539         3.777623         3.012198
 H         0.879460         2.126018         2.872693
 H        -0.267389         3.253575        -0.475114
