19
Iteration:  1685charge 0 multiplicity 1
 O         0.266766         0.132122         0.579772
 C        -0.471533         1.276890         0.774023
 C        -1.899019         1.124738         0.342771
 C        -1.675264         1.667133         1.776542
 C        -1.370275         3.105845         1.509277
 C        -0.667417         3.675915         2.732768
 C         0.852683         3.314110         2.520148
 O         0.973915         3.192039         1.136387
 C        -0.180543         2.688750         0.609722
 H         1.132573         0.342794         0.811573
 H        -2.304877         1.858102        -0.475479
 H        -2.120913         0.110649         0.084528
 H        -2.145130         1.148114         2.529767
 H        -2.080276         3.728426         1.007626
 H        -0.553255         4.790341         2.798345
 H        -1.151325         3.301842         3.728061
 H         1.493504         4.093794         2.935317
 H         1.091379         2.315909         2.976564
 H        -0.130437         2.986520        -0.405452
