19
Iteration:   148charge 0 multiplicity 1
 O         0.231272         0.169927         0.553881
 C        -0.570547         1.297464         0.763940
 C        -2.007347         1.139013         0.297767
 C        -1.551995         1.586342         1.743176
 C        -1.349978         3.083205         1.518621
 C        -0.656563         3.649619         2.741064
 C         0.850260         3.428158         2.519444
 O         1.056143         3.041363         1.191504
 C        -0.153792         2.802118         0.555906
 H         0.694182        -0.029330         1.313422
 H        -2.574430         1.878124        -0.301495
 H        -2.169301         0.117456         0.062860
 H        -1.719781         1.121506         2.759536
 H        -2.267663         3.735566         1.200147
 H        -0.834624         4.711955         2.806260
 H        -1.067198         3.292423         3.692844
 H         1.539962         4.353319         2.785015
 H         1.282554         2.647102         3.239230
 H        -0.053565         3.060677        -0.537407
