19
Iteration:  1240
 O         0.216332         0.304303         0.689544
 C        -0.567572         1.363388         0.657458
 C        -1.938901         1.017248         0.248699
 C        -1.703654         1.498370         1.690436
 C        -1.346942         2.970328         1.584185
 C        -0.566198         3.748788         2.693178
 C         0.821842         3.257215         2.621071
 O         1.073246         3.181224         1.149332
 C        -0.152654         2.824685         0.547380
 H         0.879558         0.503383         1.288727
 H        -2.685133         1.575879        -0.484029
 H        -2.155811        -0.023121         0.270751
 H        -1.715876         0.994431         2.595067
 H        -2.105536         3.640129         1.359964
 H        -0.472397         4.767533         2.479727
 H        -1.106121         3.686753         3.660915
 H         1.718790         3.742133         2.977845
 H         0.806483         2.179388         3.024316
 H        -0.199932         3.114309        -0.474924
