19
Iteration:  3042
 O         0.340862         0.232305         0.560885
 C        -0.612799         1.243863         0.600568
 C        -2.086678         1.146833         0.302153
 C        -1.733507         1.632969         1.639634
 C        -1.271274         3.086907         1.617582
 C        -0.657504         3.498412         2.843773
 C         0.816780         3.668531         2.447669
 O         1.184671         2.906161         1.277867
 C        -0.146702         2.726583         0.587317
 H         1.067469         0.369570         1.230758
 H        -2.676267         1.787286        -0.371407
 H        -2.309158         0.062103         0.081494
 H        -2.031084         1.122254         2.499255
 H        -2.031229         3.810523         1.354606
 H        -1.131334         4.429079         3.197525
 H        -0.893739         2.820703         3.664456
 H         0.866550         4.754696         2.188490
 H         1.328115         3.490760         3.364049
 H        -0.139390         3.181132        -0.464681
