19
Iteration:  3388charge 0 multiplicity 1
 O         0.264079         0.182707         0.661062
 C        -0.638717         1.298447         0.551812
 C        -2.078814         1.144475         0.157948
 C        -1.678417         1.549549         1.575728
 C        -1.347544         3.042777         1.670916
 C        -0.567171         3.451954         2.889528
 C         0.878188         3.916408         2.330952
 O         1.108016         2.789995         1.399108
 C        -0.151404         2.772737         0.650726
 H         1.014986         0.592361         1.087082
 H        -2.413623         1.913439        -0.640896
 H        -2.436328         0.118169        -0.020974
 H        -1.844477         0.732157         2.318220
 H        -1.908260         3.905508         1.459008
 H        -1.045346         4.366767         3.138027
 H        -0.572807         2.720910         3.696044
 H         0.770615         4.926873         1.835603
 H         1.678842         3.670237         3.127504
 H        -0.042675         3.460396        -0.254413
