19
Iteration:  4512
 O         0.303290         0.168589         0.502845
 C        -0.540758         1.290791         0.727101
 C        -1.942679         1.198895         0.111252
 C        -1.830002         1.572742         1.632220
 C        -1.335220         3.014393         1.679371
 C        -0.613736         3.470970         2.978736
 C         0.772241         3.944227         2.347832
 O         1.116623         2.868422         1.376449
 C        -0.102031         2.669326         0.740218
 H         0.130617        -0.176891        -0.374952
 H        -2.154793         1.992164        -0.733744
 H        -2.412640         0.245278        -0.114918
 H        -1.909707         0.947993         2.446351
 H        -2.122990         3.653764         1.253501
 H        -1.033367         4.341252         3.394460
 H        -0.332109         2.611210         3.653013
 H         0.806198         4.917245         1.777752
 H         1.643963         3.969749         2.939286
 H        -0.074314         3.063012        -0.261226
