19
Iteration:  3295charge 0 multiplicity 1
 O         0.263526         0.117811         0.608630
 C        -0.606414         1.280535         0.552954
 C        -2.069643         1.199063         0.201040
 C        -1.652695         1.451350         1.646116
 C        -1.324749         3.066003         1.646730
 C        -0.665022         3.596235         2.925116
 C         0.837134         3.777136         2.469844
 O         1.153438         2.888800         1.324766
 C        -0.105806         2.784928         0.488276
 H         1.059572         0.385598         1.158522
 H        -2.688041         1.904592        -0.422144
 H        -2.340411         0.206438         0.140333
 H        -1.944456         0.745981         2.445791
 H        -2.120658         3.668205         1.141046
 H        -1.022235         4.682069         3.245854
 H        -0.692727         2.968870         3.887369
 H         0.961665         4.836796         2.099616
 H         1.395264         3.455955         3.302528
 H        -0.079764         3.265457        -0.462363
