19
Iteration:   234charge 0 multiplicity 1
 O         0.282355         0.122510         0.549074
 C        -0.573846         1.240332         0.606989
 C        -2.016333         1.150027         0.310392
 C        -1.541083         1.662455         1.662746
 C        -1.282842         3.161637         1.560476
 C        -0.631260         3.629364         2.804375
 C         0.827713         3.664102         2.459238
 O         0.988978         2.763311         1.336791
 C        -0.193286         2.790458         0.578098
 H         1.116571         0.364248         1.144870
 H        -2.347385         1.906123        -0.346530
 H        -2.596428         0.241426         0.298166
 H        -1.760601         1.056869         2.590940
 H        -2.191880         3.712573         1.279594
 H        -0.903460         4.625841         3.178065
 H        -0.919048         2.959620         3.618729
 H         1.048068         4.647291         2.043721
 H         1.493575         3.454145         3.247445
 H        -0.199853         3.363692        -0.386442
