19
Iteration:  1168charge 0 multiplicity 1
 O         0.275323         0.222507         0.625882
 C        -0.601941         1.338585         0.658163
 C        -1.976009         0.997087         0.293605
 C        -1.719740         1.585077         1.715470
 C        -1.358177         3.028557         1.513939
 C        -0.599603         3.716830         2.636125
 C         0.900134         3.313518         2.669618
 O         1.109050         3.086707         1.236609
 C        -0.203098         2.848242         0.532546
 H         1.146281         0.497184         0.747394
 H        -2.623752         1.607719        -0.218529
 H        -2.292767        -0.043518         0.309650
 H        -1.932617         0.971560         2.629671
 H        -2.206234         3.747134         1.191932
 H        -0.736620         4.836505         2.443913
 H        -0.982746         3.550799         3.640821
 H         1.429171         4.203617         3.077318
 H         1.131931         2.459116         3.272789
 H        -0.229834         3.387302        -0.498081
