19
Iteration:  1555charge 0 multiplicity 1
 O         0.378696         0.263004         0.567386
 C        -0.578401         1.353886         0.631329
 C        -1.951737         0.995082         0.397489
 C        -1.657214         1.636947         1.744618
 C        -1.391621         3.139000         1.528821
 C        -0.646029         3.819596         2.703582
 C         0.783422         3.138266         2.581156
 O         1.070230         3.083432         1.172709
 C        -0.217363         2.794906         0.527463
 H         1.058560         0.404349         1.315939
 H        -2.514935         1.422943        -0.399658
 H        -1.938534        -0.112400         0.499237
 H        -1.816845         0.979297         2.642500
 H        -2.214747         3.894667         1.214151
 H        -0.565211         4.934822         2.579318
 H        -1.006680         3.569645         3.790333
 H         1.628047         3.554625         3.108676
 H         0.447506         2.180533         3.125816
 H        -0.201350         3.204821        -0.468528
