19
Iteration:  2626
 O         0.300252         0.303150         0.542565
 C        -0.648315         1.295092         0.603008
 C        -2.035818         1.072875         0.274396
 C        -1.673136         1.538745         1.663694
 C        -1.319930         3.049180         1.551192
 C        -0.618314         3.630019         2.839549
 C         0.930765         3.665700         2.504304
 O         1.065531         2.875807         1.354060
 C        -0.189052         2.698060         0.569727
 H         1.042523         0.657319         0.995358
 H        -2.705748         1.738079        -0.458184
 H        -2.238910         0.038236         0.173213
 H        -1.937981         1.091117         2.644667
 H        -2.105216         3.529328         0.989578
 H        -0.757085         4.679793         3.075334
 H        -1.037354         3.025680         3.664421
 H         1.306686         4.644999         2.282419
 H         1.529924         3.171040         3.287454
 H        -0.154162         3.258361        -0.437227
