19
Iteration:  1705
 O         0.326556         0.235079         0.654622
 C        -0.552202         1.245656         0.674733
 C        -1.995413         1.095023         0.283986
 C        -1.685204         1.553383         1.703935
 C        -1.386838         3.074534         1.568080
 C        -0.638124         3.746398         2.788554
 C         0.828624         3.357397         2.562805
 O         1.113572         3.059022         1.123566
 C        -0.180718         2.775104         0.500429
 H         1.168333         0.538155         1.103030
 H        -2.639860         1.767249        -0.367147
 H        -2.527967         0.111511         0.370677
 H        -1.798025         1.080900         2.667167
 H        -2.207649         3.700798         1.316205
 H        -0.939276         4.772485         2.691786
 H        -0.954892         3.421305         3.746639
 H         1.599937         4.109589         2.901234
 H         0.882696         2.463609         3.270438
 H        -0.152528         3.258158        -0.516369
