19
Iteration:  3364charge 0 multiplicity 1
 O         0.336622         0.183041         0.511071
 C        -0.643476         1.224635         0.694085
 C        -2.024108         1.210602         0.179317
 C        -1.788143         1.589366         1.636089
 C        -1.274066         3.073025         1.559787
 C        -0.535922         3.514922         2.931347
 C         0.829708         3.896610         2.357500
 O         1.088988         2.827752         1.393384
 C        -0.146960         2.661333         0.655476
 H         1.043117         0.605345         1.055329
 H        -2.696801         1.834912        -0.413064
 H        -2.217999         0.023520         0.163133
 H        -2.446532         1.085831         2.344501
 H        -1.993777         3.823259         1.242274
 H        -1.181632         4.285351         3.505839
 H        -0.472621         2.548036         3.399263
 H         0.672790         4.920072         1.926898
 H         1.653110         3.629774         3.109528
 H        -0.019074         3.115846        -0.333071
