19
Iteration:   488
 O         0.331690         0.283588         0.579190
 C        -0.547045         1.288859         0.594372
 C        -2.043745         1.054806         0.507784
 C        -1.538719         1.711921         1.711879
 C        -1.326785         3.173459         1.468634
 C        -0.640882         3.738273         2.659808
 C         0.761818         3.092665         2.592521
 O         1.032954         3.078549         1.257442
 C        -0.219715         2.761942         0.489382
 H         1.194296         0.798864         0.840241
 H        -2.627897         1.479229        -0.401219
 H        -2.258509        -0.030075         0.714631
 H        -1.764567         1.198297         2.694472
 H        -2.124278         3.675572         0.958101
 H        -0.552763         4.885043         2.660289
 H        -1.178851         3.404916         3.633003
 H         1.519447         3.621705         3.102424
 H         0.792056         2.098386         3.173696
 H        -0.023001         3.316556        -0.426839
