19
Iteration:  1868
 O         0.418181         0.273989         0.646121
 C        -0.643643         1.178707         0.698905
 C        -2.014729         1.109086         0.194517
 C        -1.804688         1.595907         1.667378
 C        -1.390503         3.027561         1.654795
 C        -0.637268         3.677280         2.756396
 C         0.947170         3.436994         2.537259
 O         1.103579         3.023865         1.169429
 C        -0.222800         2.738769         0.614629
 H         1.195898         0.866468         0.743038
 H        -2.438369         1.888374        -0.462605
 H        -2.414147         0.172142         0.210614
 H        -2.263643         1.065501         2.417529
 H        -2.193043         3.714070         1.217556
 H        -0.884694         4.740128         2.731705
 H        -0.767414         3.353118         3.751619
 H         1.497368         4.428144         2.686173
 H         1.371353         2.709896         3.199918
 H        -0.102432         3.217655        -0.397762
