19
Iteration:  3363
 O         0.339619         0.176984         0.502727
 C        -0.632680         1.225955         0.700654
 C        -2.023935         1.210754         0.180697
 C        -1.789351         1.596763         1.645187
 C        -1.274943         3.075771         1.561437
 C        -0.544763         3.504182         2.932719
 C         0.828254         3.897819         2.360315
 O         1.089299         2.826948         1.387537
 C        -0.150357         2.660000         0.656605
 H         1.012275         0.600161         1.055068
 H        -2.677806         1.826827        -0.426960
 H        -2.191630         0.028696         0.181192
 H        -2.463143         1.091364         2.316808
 H        -1.956071         3.890177         1.238692
 H        -1.185287         4.340488         3.475205
 H        -0.491071         2.526852         3.413991
 H         0.680294         4.922655         1.926274
 H         1.648927         3.640857         3.071544
 H        -0.031127         3.103824        -0.312057
