19
Iteration:   879charge 0 multiplicity 1
 O         0.381630         0.313226         0.696488
 C        -0.642563         1.236849         0.590079
 C        -2.056296         1.098112         0.330224
 C        -1.637441         1.604911         1.658931
 C        -1.315971         3.103662         1.520116
 C        -0.587744         3.819685         2.747337
 C         0.770905         3.207850         2.601912
 O         1.064740         3.026914         1.196757
 C        -0.205795         2.701919         0.524304
 H         1.040149         0.938631         0.893765
 H        -2.529674         1.744912        -0.318238
 H        -2.311636         0.105950         0.376661
 H        -1.660948         1.110431         2.602085
 H        -2.100813         3.736600         1.100024
 H        -0.622733         4.873775         2.649715
 H        -1.147989         3.464726         3.653573
 H         1.600882         3.857910         3.013061
 H         0.873002         2.227010         3.105974
 H        -0.033646         3.320828        -0.413066
