19
Iteration:  2434charge 0 multiplicity 1
 O         0.307949         0.171576         0.536049
 C        -0.548762         1.277430         0.723048
 C        -1.964655         1.072219         0.289592
 C        -1.685536         1.505923         1.709307
 C        -1.397147         3.075440         1.618397
 C        -0.567582         3.864915         2.707131
 C         0.839182         3.204501         2.631013
 O         1.022195         3.229662         1.139287
 C        -0.192120         2.773678         0.605076
 H         1.002753         0.010505         1.174877
 H        -2.398285         1.805867        -0.467930
 H        -2.214071         0.031448         0.111006
 H        -1.753365         0.935437         2.613117
 H        -2.248752         3.637824         1.137894
 H        -0.475180         4.944894         2.608152
 H        -1.141183         3.701465         3.591430
 H         1.606353         3.973320         3.033446
 H         1.010744         2.211060         3.099274
 H        -0.323658         3.145842        -0.480639
