19
Iteration:  2093
 O         0.332616         0.148087         0.525139
 C        -0.559434         1.218640         0.650363
 C        -1.941094         1.165847         0.243614
 C        -1.561263         1.522703         1.757177
 C        -1.372755         3.091204         1.645581
 C        -0.629739         3.902711         2.746118
 C         0.767745         3.257845         2.581179
 O         1.049520         3.138787         1.219846
 C        -0.247059         2.734823         0.546213
 H         1.051472         0.330198         1.087914
 H        -2.352885         2.068169        -0.344344
 H        -2.456373         0.145522         0.107376
 H        -1.601587         0.959410         2.644071
 H        -2.309248         3.549914         1.359169
 H        -0.769668         4.912168         2.569173
 H        -1.090413         3.566490         3.682360
 H         1.500974         3.968956         3.016035
 H         0.829183         2.267663         3.108076
 H        -0.239893         3.018524        -0.564455
