19
Iteration:  3735
 O         0.311719         0.158425         0.540147
 C        -0.592738         1.243345         0.719045
 C        -2.006294         1.168482         0.131815
 C        -1.798649         1.613161         1.631763
 C        -1.337127         3.074863         1.657672
 C        -0.582270         3.545102         2.964888
 C         0.839068         3.744700         2.440449
 O         1.047862         2.990662         1.264370
 C        -0.090561         2.616960         0.618612
 H         1.154253         0.251927         1.056534
 H        -2.081881         1.924539        -0.675827
 H        -2.224938         0.075330         0.011971
 H        -2.260037         1.140769         2.478183
 H        -2.106170         3.791554         1.220437
 H        -1.030726         4.508860         3.286107
 H        -0.713507         2.678256         3.662604
 H         0.969199         4.799066         2.088931
 H         1.600410         3.421727         3.073116
 H        -0.089457         3.037530        -0.410152
