19
Iteration:   763charge 0 multiplicity 1
 O         0.213835        -0.012147         0.498907
 C        -0.534072         1.162635         0.625796
 C        -1.941366         1.068762         0.283203
 C        -1.669873         1.617202         1.676616
 C        -1.338266         3.092269         1.542425
 C        -0.580321         3.876350         2.749504
 C         0.828797         3.304445         2.644691
 O         1.040999         3.240699         1.219334
 C        -0.153116         2.859467         0.650134
 H         0.817347         0.092797         1.331307
 H        -2.510832         1.692461        -0.576428
 H        -2.220328         0.009601         0.362861
 H        -1.727639         1.042083         2.598022
 H        -2.266463         3.644460         1.329576
 H        -0.508632         4.970227         2.417600
 H        -1.074888         3.740242         3.735281
 H         1.581756         3.880887         3.090345
 H         0.943129         2.277571         3.067296
 H        -0.302736         3.321526        -0.291271
