19
Iteration:  3369charge 0 multiplicity 1
 O         0.316256         0.221716         0.559476
 C        -0.666677         1.223999         0.648570
 C        -2.042576         1.175810         0.174868
 C        -1.786757         1.558933         1.596195
 C        -1.279862         3.056042         1.579153
 C        -0.507548         3.556461         2.903204
 C         0.841740         3.877761         2.363301
 O         1.084225         2.836888         1.419405
 C        -0.122739         2.668946         0.639691
 H         1.126877         0.548691         0.989583
 H        -2.666031         1.870266        -0.419339
 H        -2.392305         0.220285         0.049145
 H        -2.268289         1.089264         2.482650
 H        -2.203738         3.584535         1.210032
 H        -1.098439         4.039002         3.640871
 H        -0.352619         2.593700         3.459120
 H         0.789980         4.880031         1.919398
 H         1.571783         3.768258         3.157222
 H         0.011215         3.145075        -0.375095
