19
Iteration:  3412charge 0 multiplicity 1
 O         0.254400         0.197821         0.570081
 C        -0.581134         1.276264         0.595447
 C        -1.957876         1.102523         0.179531
 C        -1.723326         1.586667         1.610506
 C        -1.348546         3.033394         1.657812
 C        -0.557496         3.598300         2.987138
 C         0.832646         3.791715         2.406680
 O         1.028632         2.862110         1.313916
 C        -0.139302         2.708286         0.569269
 H         0.853734         0.229542         1.376642
 H        -2.224336         1.828013        -0.683775
 H        -2.366107         0.165068         0.029124
 H        -2.147898         1.015818         2.465923
 H        -1.883863         3.941309         1.364462
 H        -0.791319         4.481708         3.508344
 H        -0.504493         2.760771         3.712790
 H         0.841551         4.851557         1.973074
 H         1.645476         3.491571         3.153342
 H        -0.105104         3.200582        -0.488531
