19
Iteration:  4736charge 0 multiplicity 1
 O         0.237917         0.123942         0.374109
 C        -0.551382         1.313935         0.517692
 C        -2.071937         1.179532         0.179654
 C        -1.676906         1.463319         1.601816
 C        -1.275760         2.917964         1.712343
 C        -0.558713         3.662547         2.993650
 C         0.763040         3.934667         2.407977
 O         1.126890         2.824511         1.488380
 C        -0.097347         2.756088         0.599940
 H         0.497213        -0.075660         1.271310
 H        -2.747590         1.925465        -0.195641
 H        -2.272352         0.144231        -0.025155
 H        -1.803095         0.671444         2.472331
 H        -2.223068         3.535274         1.431169
 H        -1.191837         4.573965         3.101130
 H        -0.729930         3.008483         3.793742
 H         0.739221         4.827477         1.787703
 H         1.621776         4.105222         3.210717
 H         0.057401         3.459697        -0.174227
