19
Iteration:  1043charge 0 multiplicity 1
 O         0.284940         0.198973         0.586344
 C        -0.540907         1.307222         0.726946
 C        -2.035607         1.139425         0.262605
 C        -1.548257         1.560988         1.733538
 C        -1.369236         3.076247         1.539375
 C        -0.652757         3.781330         2.716493
 C         0.800487         3.249165         2.550644
 O         1.073395         3.114851         1.178747
 C        -0.123496         2.760245         0.584518
 H         0.945183         0.324479         1.266672
 H        -2.604902         1.870015        -0.385168
 H        -2.370659         0.028535         0.259820
 H        -1.864342         0.989198         2.675783
 H        -2.152762         3.582642         0.993646
 H        -0.755134         4.838453         2.612890
 H        -1.132812         3.366774         3.679555
 H         1.431808         3.973982         3.095620
 H         0.777470         2.333045         3.126289
 H        -0.214229         3.280326        -0.310053
