19
Iteration:  4985
 O         0.340349         0.164111         0.316195
 C        -0.591783         1.175539         0.634813
 C        -1.924914         1.194019         0.209776
 C        -1.727574         1.591650         1.696533
 C        -1.368247         3.072014         1.696212
 C        -0.530877         3.545767         2.924695
 C         0.790058         3.922866         2.350217
 O         1.009642         2.842287         1.501186
 C        -0.221473         2.632665         0.651943
 H         1.216846         0.461420         0.630490
 H        -2.348632         1.959878        -0.446670
 H        -2.244361         0.151066        -0.067002
 H        -2.314699         1.033081         2.390008
 H        -2.062658         3.871310         1.376677
 H        -0.993891         4.390209         3.438834
 H        -0.372512         2.740802         3.692261
 H         0.861222         4.780067         1.787817
 H         1.571982         3.965949         3.025818
 H         0.130415         3.016580        -0.239850
