19
Iteration:  2209
 O         0.448548         0.403116         0.614416
 C        -0.628714         1.248291         0.611366
 C        -2.088162         1.022723         0.214495
 C        -1.789228         1.567649         1.621349
 C        -1.449617         3.008409         1.662123
 C        -0.590059         3.746893         2.744959
 C         0.942338         3.379163         2.708275
 O         1.095123         2.955256         1.110692
 C        -0.224684         2.742865         0.645159
 H         1.124163         0.897323         1.098944
 H        -2.339693         1.515117        -0.732693
 H        -2.307166         0.070428         0.313307
 H        -2.089474         1.114920         2.502478
 H        -2.268994         3.704563         1.326653
 H        -0.482903         4.817655         2.285496
 H        -0.792423         3.770126         3.860205
 H         1.625567         4.185733         2.811929
 H         1.131184         2.478522         3.334667
 H        -0.212366         3.216172        -0.266740
