19
Iteration:  4822charge 0 multiplicity 1
 O         0.300673         0.306286         0.530743
 C        -0.628531         1.332542         0.575570
 C        -2.055098         1.081798         0.232142
 C        -1.722405         1.529189         1.593924
 C        -1.363244         3.030070         1.646458
 C        -0.573299         3.484609         2.873673
 C         0.915026         3.747297         2.387239
 O         1.073134         2.868072         1.400984
 C        -0.149495         2.784723         0.589041
 H         1.052797         0.373947         1.164071
 H        -2.722425         1.681845        -0.314874
 H        -2.249387         0.013595         0.143101
 H        -1.819369         0.967551         2.605208
 H        -2.190573         3.636359         1.378795
 H        -1.095840         4.362058         3.187208
 H        -0.607738         2.833719         3.731336
 H         1.080177         4.839205         2.285725
 H         1.588288         3.322530         3.118402
 H         0.056371         3.392859        -0.354282
