19
Iteration:  3705charge 0 multiplicity 1
 O         0.323670         0.211740         0.647816
 C        -0.601716         1.244525         0.575332
 C        -2.071367         1.120457         0.120186
 C        -1.787645         1.576704         1.648132
 C        -1.340175         3.053356         1.621766
 C        -0.562597         3.524481         2.871126
 C         0.875171         3.751968         2.453041
 O         1.097786         2.942364         1.279966
 C        -0.151205         2.689142         0.695239
 H         1.159963         0.612013         0.930802
 H        -2.297199         1.790252        -0.607827
 H        -2.255795         0.056009         0.001046
 H        -2.472591         1.149849         2.337081
 H        -2.032547         3.760733         1.163832
 H        -0.995620         4.285234         3.481535
 H        -0.746470         2.749569         3.636459
 H         1.121886         4.804674         2.148529
 H         1.766961         3.568434         3.152979
 H        -0.167996         3.321062        -0.271154
