19
Iteration:  1800charge 0 multiplicity 1
 O         0.336804         0.180652         0.541212
 C        -0.587251         1.319269         0.592031
 C        -2.040633         0.985475         0.399966
 C        -1.527426         1.608795         1.760049
 C        -1.340605         3.142817         1.520525
 C        -0.617314         3.839988         2.702256
 C         0.696667         3.140357         2.623059
 O         1.042906         3.169581         1.242050
 C        -0.128463         2.825483         0.498486
 H         1.203379         0.527619         0.881271
 H        -2.844670         1.440263        -0.105336
 H        -2.166838        -0.088652         0.671391
 H        -1.596088         1.056346         2.728616
 H        -2.272556         3.606792         1.053962
 H        -0.404327         4.937889         2.472739
 H        -1.203392         3.800686         3.646940
 H         1.488079         3.576707         3.274318
 H         0.560575         2.100590         2.859292
 H        -0.147105         3.199476        -0.545115
