19
Iteration:  1531charge 0 multiplicity 1
 O         0.360798         0.214709         0.623426
 C        -0.523134         1.279658         0.631219
 C        -2.040240         1.137130         0.429032
 C        -1.419380         1.590055         1.717322
 C        -1.343573         3.101431         1.468077
 C        -0.724368         3.755433         2.690159
 C         0.747105         3.126015         2.615722
 O         0.974929         3.157546         1.185672
 C        -0.182602         2.804031         0.472640
 H         0.970910         0.355528         1.292531
 H        -2.334381         1.928276        -0.192932
 H        -2.708505         0.193690         0.513659
 H        -1.494884         0.996471         2.692437
 H        -2.274705         3.624935         1.206909
 H        -0.416820         4.840566         2.564204
 H        -1.321864         3.623812         3.662632
 H         1.529933         3.758220         3.071967
 H         0.825614         2.080795         3.065144
 H        -0.161141         3.221302        -0.488232
