19
Iteration:  3308
 O         0.188243         0.140575         0.602855
 C        -0.594689         1.244790         0.543148
 C        -2.063971         1.115843         0.184992
 C        -1.657628         1.553834         1.595311
 C        -1.270144         2.950362         1.591183
 C        -0.573574         3.593155         2.836606
 C         0.858533         3.804260         2.476813
 O         1.088424         2.968865         1.368751
 C        -0.144239         2.735938         0.661917
 H         0.955868         0.513896         1.031183
 H        -2.465233         1.973256        -0.398373
 H        -2.542033         0.103140        -0.003425
 H        -1.671810         0.930932         2.457467
 H        -2.088944         3.608433         1.351894
 H        -1.134761         4.561270         3.078622
 H        -0.695524         2.831667         3.612882
 H         1.123296         4.909921         2.280543
 H         1.656171         3.538066         3.225392
 H        -0.067777         3.388798        -0.228248
