19
Iteration:  3103charge 0 multiplicity 1
 O         0.275500         0.234752         0.635925
 C        -0.599071         1.294359         0.599376
 C        -2.077925         1.084757         0.119021
 C        -1.747878         1.534371         1.558628
 C        -1.267000         3.060665         1.715112
 C        -0.599525         3.499226         3.003299
 C         0.875805         3.786714         2.308317
 O         1.140605         2.881501         1.337670
 C        -0.155023         2.751904         0.601026
 H         0.710146         0.323113         1.475896
 H        -2.414538         1.844002        -0.598859
 H        -2.320088         0.106287         0.012203
 H        -2.325714         0.954495         2.292856
 H        -2.101136         3.758482         1.445327
 H        -1.008566         4.409309         3.364677
 H        -0.725641         2.666691         3.791675
 H         0.657865         4.727365         1.702057
 H         1.835829         3.927842         2.934940
 H         0.036143         3.369029        -0.220865
