19
Iteration:  3511
 O         0.324671         0.303406         0.536783
 C        -0.657387         1.260799         0.632380
 C        -2.043569         1.127031         0.159841
 C        -1.696979         1.520359         1.594745
 C        -1.283322         3.061536         1.576137
 C        -0.557963         3.603440         2.937949
 C         0.829719         3.804699         2.373664
 O         1.032575         2.777430         1.398301
 C        -0.123269         2.676473         0.692550
 H         0.993112         0.260639         1.254152
 H        -2.434276         1.801148        -0.632079
 H        -2.457494         0.042413        -0.008858
 H        -2.186983         0.845452         2.278321
 H        -2.068983         3.772582         1.223398
 H        -0.893276         4.563320         3.305109
 H        -0.666435         3.085738         3.873333
 H         0.941797         4.845446         1.898742
 H         1.667242         3.677464         3.153605
 H        -0.067105         3.250050        -0.279140
