19
Iteration:   341charge 0 multiplicity 1
 O         0.202083         0.164053         0.582200
 C        -0.629870         1.330000         0.655634
 C        -2.060452         1.164496         0.137471
 C        -1.846487         1.534369         1.587300
 C        -1.371705         3.013209         1.687394
 C        -0.511028         3.532967         2.919552
 C         0.861153         3.891526         2.325766
 O         1.140309         2.840985         1.389436
 C        -0.019097         2.680222         0.631060
 H         0.938410         0.417558         1.196020
 H        -2.617500         1.794588        -0.452080
 H        -2.246049         0.099331        -0.063570
 H        -1.976166         0.836724         2.470363
 H        -1.897613         3.785397         1.235797
 H        -0.826742         4.508198         3.220050
 H        -0.333140         2.892136         3.745344
 H         0.871232         4.893118         1.722427
 H         1.637117         3.935204         3.038267
 H         0.046671         3.083500        -0.351092
