19
Iteration:  4057charge 0 multiplicity 1
 O         0.231830         0.171178         0.566027
 C        -0.551634         1.263252         0.616612
 C        -2.015924         1.143962         0.074980
 C        -1.800756         1.459594         1.650557
 C        -1.421451         2.991460         1.675911
 C        -0.501320         3.544474         2.897682
 C         0.850623         3.948677         2.406961
 O         1.142119         2.894805         1.350920
 C        -0.108862         2.750997         0.603614
 H         0.625544         0.072982         1.494077
 H        -2.291496         1.984852        -0.431919
 H        -2.370993         0.168443        -0.206206
 H        -2.044353         1.038220         2.587060
 H        -2.288023         3.584461         1.274917
 H        -0.959780         4.316790         3.617104
 H        -0.427264         2.722317         3.710935
 H         1.033233         4.924391         1.871059
 H         1.608559         3.704876         3.258138
 H        -0.125699         3.289796        -0.332733
