19
Iteration:  1183charge 0 multiplicity 1
 O         0.271860         0.171766         0.538061
 C        -0.525256         1.237959         0.756693
 C        -2.024468         1.068424         0.368243
 C        -1.690373         1.604715         1.712647
 C        -1.374405         3.125495         1.502269
 C        -0.664648         3.715647         2.750426
 C         0.810058         3.316520         2.583830
 O         1.085222         3.195897         1.193444
 C        -0.107795         2.715306         0.579721
 H         1.189710         0.560956         0.727575
 H        -2.305921         1.689454        -0.570101
 H        -2.225067        -0.017656         0.167421
 H        -2.028363         1.312020         2.722921
 H        -2.185169         3.704654         1.028210
 H        -0.610361         4.817872         2.712017
 H        -1.169708         3.348621         3.662710
 H         1.595896         4.014470         2.874479
 H         1.057949         2.327775         3.070153
 H         0.036944         3.053729        -0.512019
