19
Iteration:  1042
 O         0.286463         0.205777         0.586835
 C        -0.540358         1.309222         0.724734
 C        -2.039986         1.129974         0.259706
 C        -1.560530         1.556676         1.732152
 C        -1.362844         3.072180         1.537239
 C        -0.649651         3.782106         2.723367
 C         0.808713         3.253654         2.543723
 O         1.073167         3.118804         1.180206
 C        -0.122902         2.750323         0.595307
 H         0.929844         0.343508         1.238223
 H        -2.606267         1.894732        -0.412003
 H        -2.406312         0.019226         0.260707
 H        -1.881553         0.989124         2.660010
 H        -2.142253         3.608535         1.010667
 H        -0.779525         4.860266         2.598911
 H        -1.145926         3.390665         3.687618
 H         1.420074         3.986643         3.102221
 H         0.804457         2.322459         3.125250
 H        -0.179860         3.245680        -0.312642
