19
Iteration:  1635
 O         0.273449         0.193008         0.688163
 C        -0.527432         1.352974         0.605586
 C        -1.963118         0.997451         0.320039
 C        -1.676362         1.596086         1.631816
 C        -1.342723         3.036162         1.586066
 C        -0.594989         3.775707         2.726004
 C         0.880656         3.239606         2.591243
 O         1.005491         3.193174         1.156372
 C        -0.213034         2.797547         0.523004
 H         0.819774         0.387403         1.549446
 H        -2.602767         1.576625        -0.352399
 H        -2.219762        -0.033325         0.339504
 H        -1.649564         0.997251         2.528422
 H        -2.239197         3.671037         1.268409
 H        -0.657226         4.853004         2.745500
 H        -0.969364         3.401336         3.674546
 H         1.665784         3.948776         2.881258
 H         1.058681         2.278657         3.168087
 H        -0.276979         3.300540        -0.495371
