19
Iteration:  4779charge 0 multiplicity 1
 O         0.340435         0.081453         0.259257
 C        -0.520424         1.213893         0.667898
 C        -2.059599         1.191380         0.291551
 C        -1.755025         1.598154         1.666984
 C        -1.321581         3.054213         1.677805
 C        -0.592737         3.581723         2.905778
 C         0.785822         3.886094         2.436550
 O         0.999563         2.841517         1.449748
 C        -0.068539         2.716276         0.635018
 H         1.205230         0.475790         0.479330
 H        -2.389970         1.734817        -0.549507
 H        -2.363760         0.170882         0.096673
 H        -2.226880         0.988926         2.591762
 H        -2.090386         3.814535         1.375968
 H        -0.997154         4.497998         3.344523
 H        -0.517477         2.979803         3.764585
 H         0.855838         4.811229         1.927708
 H         1.596463         3.788427         3.264866
 H         0.021290         3.154682        -0.386123
