19
Iteration:  4596charge 0 multiplicity 1
 O         0.362532         0.185398         0.628509
 C        -0.608950         1.230134         0.676140
 C        -2.078841         1.126146         0.123886
 C        -1.794298         1.614087         1.566447
 C        -1.275335         3.099036         1.606326
 C        -0.508796         3.404894         2.911996
 C         0.890706         3.770588         2.456254
 O         1.042846         3.058461         1.274777
 C        -0.216614         2.674336         0.685649
 H         1.294823         0.473192         0.487135
 H        -2.427710         1.838340        -0.689207
 H        -2.440340         0.141918         0.064193
 H        -2.294814         0.936031         2.290210
 H        -1.946590         3.914030         1.295019
 H        -1.061557         4.261394         3.553889
 H        -0.437933         2.479979         3.571328
 H         1.082984         4.847220         2.419519
 H         1.488384         3.224932         3.254057
 H        -0.486332         3.049555        -0.382997
