19
Iteration:   430charge 0 multiplicity 1
 O         0.396340         0.235271         0.683817
 C        -0.608113         1.235936         0.626162
 C        -1.999437         1.015020         0.267564
 C        -1.712965         1.608265         1.655075
 C        -1.331755         3.175033         1.623360
 C        -0.539767         3.773403         2.814420
 C         0.867199         3.219807         2.641171
 O         1.006784         3.025084         1.113165
 C        -0.301189         2.841426         0.493091
 H         1.165398         0.584752         1.016981
 H        -2.320253         1.645154        -0.516484
 H        -2.339356         0.002744         0.249603
 H        -2.075667         1.102302         2.512860
 H        -2.071637         3.793330         1.207591
 H        -0.359973         4.811140         2.550171
 H        -1.010458         3.698049         3.786976
 H         1.582067         4.108691         2.810244
 H         1.011899         2.361931         3.236031
 H        -0.371397         3.396382        -0.425271
