19
Iteration:   605
 O         0.193988         0.145499         0.499158
 C        -0.573950         1.248573         0.647647
 C        -2.013163         0.945856         0.395356
 C        -1.639925         1.644535         1.705416
 C        -1.343634         3.117264         1.509319
 C        -0.638045         3.747436         2.638309
 C         0.840321         3.250366         2.647460
 O         1.127556         3.242992         1.246812
 C        -0.092535         2.834813         0.585318
 H         0.858554         0.131162         1.150805
 H        -2.612798         1.550612        -0.188082
 H        -2.284248        -0.111798         0.477295
 H        -2.037959         1.128722         2.638278
 H        -2.012917         3.849908         0.977493
 H        -0.675838         4.776780         2.573085
 H        -1.052276         3.431180         3.567959
 H         1.516076         4.020474         3.217548
 H         0.994722         2.272324         3.126916
 H        -0.155049         3.374998        -0.397975
