19
Iteration:  3554
 O         0.244477         0.165073         0.409971
 C        -0.587003         1.217334         0.682702
 C        -1.981071         1.107300         0.207606
 C        -1.713665         1.539795         1.628891
 C        -1.277572         3.111374         1.605219
 C        -0.592154         3.588502         2.852150
 C         0.814505         3.874499         2.393689
 O         1.051142         2.861562         1.523726
 C        -0.119055         2.698630         0.636791
 H         1.119349         0.464960         0.795921
 H        -2.520984         1.826434        -0.441409
 H        -2.521769         0.095174         0.033449
 H        -2.174687         1.180862         2.523265
 H        -1.936552         3.788611         1.085879
 H        -1.174403         4.310438         3.427662
 H        -0.555598         2.690608         3.476319
 H         0.859267         4.805475         1.898028
 H         1.666141         3.760672         3.133596
 H         0.130428         3.091166        -0.318134
