19
Iteration:   617
 O         0.289201         0.133373         0.536189
 C        -0.563283         1.280613         0.632795
 C        -2.074865         1.035035         0.411800
 C        -1.668973         1.686653         1.684012
 C        -1.301684         3.145143         1.516191
 C        -0.660354         3.747394         2.795447
 C         0.768805         3.214141         2.574361
 O         1.087495         3.258160         1.209068
 C        -0.056976         2.712774         0.515954
 H         1.063492         0.325341         1.237353
 H        -2.666173         1.470978        -0.383392
 H        -2.222829        -0.089591         0.457960
 H        -1.811382         1.324295         2.759169
 H        -2.185713         3.702324         1.168726
 H        -0.681571         4.772066         2.667289
 H        -1.167092         3.525450         3.735892
 H         1.630265         3.734714         3.134173
 H         0.739073         2.158995         2.874385
 H         0.113473         3.059356        -0.517614
