19
Iteration:  1673
 O         0.299269         0.069097         0.555897
 C        -0.499224         1.197146         0.744433
 C        -1.892919         1.100765         0.353626
 C        -1.798169         1.640780         1.684645
 C        -1.348059         3.117197         1.522635
 C        -0.603767         3.727461         2.768454
 C         0.843822         3.276712         2.569606
 O         0.987189         3.339290         1.149598
 C        -0.150436         2.701120         0.588796
 H         1.237614         0.196197         0.886802
 H        -2.447393         1.736638        -0.417088
 H        -2.321639         0.061010         0.524275
 H        -2.153518         1.309466         2.648459
 H        -2.029133         3.780184         1.053295
 H        -0.835736         4.797422         2.661589
 H        -0.996205         3.388460         3.761120
 H         1.707008         3.919516         2.907596
 H         1.017288         2.232002         2.974724
 H        -0.228212         3.017292        -0.446755
