19
Iteration:  2412
 O         0.302441         0.097091         0.503860
 C        -0.561836         1.169941         0.644315
 C        -2.018932         1.140750         0.364491
 C        -1.631734         1.591195         1.749669
 C        -1.320574         3.013123         1.589595
 C        -0.633590         3.696274         2.725706
 C         0.790058         3.307705         2.594460
 O         1.037803         3.358088         1.193124
 C        -0.087120         2.732041         0.574181
 H         1.079815         0.115374         1.144639
 H        -2.604540         1.921478        -0.272905
 H        -2.362007         0.162069         0.283088
 H        -2.291794         1.456213         2.547080
 H        -2.162314         3.564050         1.090495
 H        -0.656258         4.775149         2.527189
 H        -1.065806         3.581210         3.702126
 H         1.576100         4.048766         2.991844
 H         0.908495         2.335577         3.084489
 H        -0.146926         3.048148        -0.530718
