19
Iteration:  4733charge 0 multiplicity 1
 O         0.253884         0.116643         0.361937
 C        -0.550140         1.286193         0.517691
 C        -2.039951         1.169227         0.193288
 C        -1.677984         1.486705         1.600287
 C        -1.281472         2.936212         1.675615
 C        -0.560814         3.667266         3.011243
 C         0.794308         3.938186         2.420032
 O         1.114925         2.831631         1.492678
 C        -0.139339         2.745016         0.602593
 H         0.440239        -0.029759         1.325089
 H        -2.759212         1.940810        -0.104039
 H        -2.357981         0.214891        -0.115822
 H        -1.864746         0.685233         2.455237
 H        -2.117658         3.541186         1.427017
 H        -1.188005         4.463750         3.204741
 H        -0.738083         3.019969         3.879987
 H         0.777349         4.773792         1.744742
 H         1.524059         4.085577         3.134970
 H         0.006048         3.474033        -0.245321
