19
Iteration:  2852charge 0 multiplicity 1
 O         0.257327         0.182879         0.619698
 C        -0.576044         1.256895         0.594946
 C        -1.942494         1.063665         0.203053
 C        -1.832194         1.620981         1.555306
 C        -1.355517         3.051941         1.581685
 C        -0.501064         3.523024         2.918081
 C         0.892372         3.741942         2.446974
 O         1.076848         2.951719         1.323307
 C        -0.222696         2.779662         0.626734
 H         1.097886         0.526535         0.916442
 H        -2.490935         1.624183        -0.515011
 H        -2.207561        -0.037024         0.104621
 H        -2.397128         1.117263         2.437781
 H        -2.126724         3.815596         1.344073
 H        -0.873815         4.465506         3.426387
 H        -0.455948         2.677248         3.785466
 H         1.279248         4.789414         2.128639
 H         1.550687         3.244090         3.197160
 H        -0.123914         3.261421        -0.402264
