19
Iteration:  2342charge 0 multiplicity 1
 O         0.482003         0.445627         0.587234
 C        -0.680833         1.243011         0.640704
 C        -2.124738         1.050768         0.247505
 C        -1.662456         1.587817         1.685082
 C        -1.350778         3.069983         1.609325
 C        -0.568895         3.783798         2.725126
 C         0.854397         3.402912         2.572332
 O         1.014399         2.843624         1.247864
 C        -0.197951         2.673278         0.545096
 H         1.268636         0.981627         1.003026
 H        -2.522271         1.722824        -0.356145
 H        -2.588167        -0.019809         0.045545
 H        -2.093996         1.106070         2.659555
 H        -2.364483         3.548645         1.338587
 H        -0.641878         4.915922         2.802175
 H        -0.725771         3.550031         3.879668
 H         1.487909         4.264334         2.664719
 H         1.185655         2.571656         3.312816
 H        -0.021743         3.087589        -0.386230
