19
Iteration:  4744charge 0 multiplicity 1
 O         0.189608         0.162667         0.387642
 C        -0.588673         1.331776         0.516887
 C        -2.110064         1.186040         0.176372
 C        -1.616831         1.408761         1.600913
 C        -1.291054         2.935457         1.772664
 C        -0.633053         3.631192         2.902510
 C         0.773671         3.929983         2.383014
 O         1.126340         2.830264         1.485257
 C        -0.005925         2.760513         0.681246
 H         0.672986        -0.093802         1.171120
 H        -2.615603         1.849794        -0.541445
 H        -2.220977         0.155809         0.075117
 H        -1.715654         0.682579         2.529161
 H        -2.108154         3.496311         1.422640
 H        -1.029215         4.582498         3.057882
 H        -0.550640         3.020900         3.821718
 H         0.677436         4.899573         1.904030
 H         1.552609         3.984643         3.059691
 H         0.095355         3.419504        -0.236732
