19
Iteration:  3592
 O         0.195102         0.089508         0.492928
 C        -0.573852         1.232243         0.576556
 C        -2.050326         1.117774         0.108347
 C        -1.595715         1.566424         1.640136
 C        -1.264780         2.993646         1.625923
 C        -0.643510         3.626715         2.898818
 C         0.859772         3.854035         2.447358
 O         1.068567         2.953159         1.436049
 C        -0.098524         2.728945         0.637479
 H         0.786852        -0.149255         1.239016
 H        -2.541544         1.957624        -0.294019
 H        -2.379449         0.143220         0.039030
 H        -2.033254         0.877014         2.391773
 H        -2.116605         3.612642         1.193693
 H        -1.010749         4.613053         3.230484
 H        -0.625263         2.804990         3.656526
 H         0.860072         4.980609         2.162454
 H         1.568325         3.721333         3.226860
 H        -0.171516         3.409048        -0.293252
