19
Iteration:  3970
 O         0.289986         0.217978         0.629892
 C        -0.583460         1.275527         0.547487
 C        -2.063754         1.151506         0.199454
 C        -1.696277         1.540339         1.568124
 C        -1.297067         3.060586         1.644925
 C        -0.549057         3.486088         3.008497
 C         0.871827         3.829706         2.383145
 O         1.032531         2.859135         1.323679
 C        -0.122179         2.750038         0.554889
 H         0.580307         0.220137         1.562462
 H        -2.320568         1.687268        -0.674558
 H        -2.349007         0.082391         0.186082
 H        -2.154959         0.886943         2.285189
 H        -2.073884         3.940545         1.487582
 H        -0.997091         4.481793         3.305087
 H        -0.687574         2.600896         3.688973
 H         0.656136         4.772291         1.926649
 H         1.756054         3.775764         3.130975
 H        -0.136390         3.285182        -0.401479
