19
Iteration:   640charge 0 multiplicity 1
 O         0.383892         0.224591         0.669908
 C        -0.536823         1.269142         0.721425
 C        -1.930155         1.104429         0.339279
 C        -1.600484         1.690052         1.728786
 C        -1.345198         3.205829         1.515822
 C        -0.601915         3.737586         2.710055
 C         0.758822         3.077399         2.582664
 O         0.982218         3.093997         1.131945
 C        -0.240188         2.766670         0.514025
 H         1.159560         0.640227         0.890172
 H        -2.341757         1.928419        -0.340664
 H        -2.537107         0.148431         0.233857
 H        -2.103659         1.211140         2.616670
 H        -2.190707         3.754675         1.121444
 H        -0.557367         4.801742         2.759648
 H        -1.180124         3.411592         3.614783
 H         1.597838         3.622189         3.064461
 H         0.715461         2.039350         2.949108
 H        -0.314088         3.234258        -0.453378
