19
Iteration:  1842charge 0 multiplicity 1
 O         0.404520         0.237758         0.550903
 C        -0.571094         1.199766         0.696885
 C        -2.042798         1.093579         0.303598
 C        -1.704908         1.612961         1.649736
 C        -1.319045         3.111632         1.594183
 C        -0.623764         3.769640         2.753341
 C         0.827417         3.348632         2.612760
 O         1.029460         3.084571         1.176533
 C        -0.204587         2.662098         0.550005
 H         1.170600         0.600065         1.127397
 H        -2.592799         1.834687        -0.243626
 H        -2.391643        -0.002951         0.239636
 H        -2.169248         1.034352         2.526853
 H        -2.085519         3.837153         1.197115
 H        -0.786456         4.928170         2.771198
 H        -0.896207         3.349017         3.807032
 H         1.478936         4.207844         2.777768
 H         1.184808         2.544090         3.299858
 H        -0.039687         3.029372        -0.443243
