19
Iteration:  2438
 O         0.300488         0.192462         0.550722
 C        -0.551511         1.282142         0.700459
 C        -1.947708         1.057692         0.267572
 C        -1.658967         1.506224         1.707493
 C        -1.414830         3.108736         1.636852
 C        -0.582442         3.874279         2.723653
 C         0.836317         3.205003         2.621911
 O         1.024591         3.181602         1.121430
 C        -0.182908         2.798334         0.618638
 H         1.042548         0.066863         1.186537
 H        -2.463405         1.765977        -0.381727
 H        -2.116331        -0.140037         0.026538
 H        -1.884067         0.993785         2.716990
 H        -2.237276         3.565507         1.124544
 H        -0.425176         4.964950         2.645872
 H        -1.060185         3.628607         3.692187
 H         1.598211         3.897518         2.864713
 H         0.858853         2.246243         3.128258
 H        -0.341049         3.144835        -0.449502
