19
Iteration:   432charge 0 multiplicity 1
 O         0.391326         0.231152         0.674196
 C        -0.595572         1.231122         0.641258
 C        -1.981784         1.010222         0.264294
 C        -1.704904         1.618932         1.662725
 C        -1.320492         3.173123         1.613372
 C        -0.535029         3.772215         2.800959
 C         0.858743         3.218123         2.643353
 O         0.990603         3.031761         1.103509
 C        -0.308534         2.842379         0.508392
 H         1.201079         0.610002         1.020311
 H        -2.344196         1.707771        -0.558893
 H        -2.355868         0.013436         0.298174
 H        -2.123343         1.145633         2.533262
 H        -2.123199         3.761086         1.254335
 H        -0.288605         4.827260         2.477722
 H        -1.079031         3.687624         3.795297
 H         1.617969         4.011882         2.860270
 H         0.966332         2.305819         3.274321
 H        -0.382309         3.426421        -0.381089
