19
Iteration:  2464charge 0 multiplicity 1
 O         0.406581         0.338866         0.632544
 C        -0.580168         1.292189         0.603241
 C        -2.014726         1.020664         0.344540
 C        -1.675050         1.648121         1.664769
 C        -1.344726         3.105709         1.628271
 C        -0.586814         3.752249         2.743953
 C         0.817640         3.219107         2.613585
 O         1.017973         2.972416         1.164568
 C        -0.257977         2.818816         0.492565
 H         1.260543         0.699612         0.911052
 H        -2.412132         1.483278        -0.555933
 H        -2.346659         0.129512         0.582487
 H        -1.688586         1.084804         2.551653
 H        -2.232556         3.684040         1.275274
 H        -0.611560         4.863698         2.703737
 H        -1.105298         3.358388         3.691808
 H         1.573180         3.988209         2.848595
 H         0.894694         2.270096         3.210579
 H        -0.272968         3.277873        -0.436115
