19
Iteration:  3573charge 0 multiplicity 1
 O         0.196238         0.102665         0.438964
 C        -0.549307         1.281959         0.544824
 C        -2.034703         1.144647         0.243439
 C        -1.708918         1.560854         1.627748
 C        -1.304027         3.019786         1.589159
 C        -0.654992         3.583136         2.951473
 C         0.764654         3.928642         2.467887
 O         1.177264         2.853748         1.392266
 C        -0.050408         2.713194         0.654077
 H         0.759247         0.209607         1.270196
 H        -2.528968         1.661736        -0.597057
 H        -2.271322         0.038838         0.106444
 H        -1.868783         0.925007         2.539118
 H        -2.046948         3.768541         1.300340
 H        -1.142138         4.556452         3.086023
 H        -0.649096         2.803612         3.759958
 H         0.811791         4.874933         1.863183
 H         1.519066         3.837807         3.329655
 H         0.045468         3.323078        -0.269498
