19
Iteration:  2767
 O         0.260692         0.128934         0.532333
 C        -0.655583         1.221059         0.606848
 C        -2.020445         1.098940         0.128821
 C        -1.813358         1.591100         1.589059
 C        -1.262792         3.032672         1.646542
 C        -0.569924         3.552631         2.978463
 C         0.897110         3.867625         2.451539
 O         1.119193         2.959765         1.302466
 C        -0.096271         2.693263         0.673187
 H         0.833635         0.435344         1.267882
 H        -2.509235         1.710796        -0.698262
 H        -2.378911        -0.012302         0.079700
 H        -2.420471         0.924707         2.340767
 H        -2.075096         3.730472         1.381255
 H        -0.987058         4.436033         3.388930
 H        -0.534644         2.836509         3.731908
 H         0.745364         4.907034         2.019720
 H         1.771474         3.856648         3.163163
 H        -0.113937         3.159025        -0.293926
