19
Iteration:  2930
 O         0.199708         0.150147         0.474837
 C        -0.589389         1.313965         0.542182
 C        -2.011233         1.061846         0.109632
 C        -1.718586         1.645598         1.681162
 C        -1.268728         3.044339         1.694159
 C        -0.570256         3.613628         2.981592
 C         0.752856         3.875503         2.367700
 O         1.066811         2.799007         1.438191
 C        -0.049681         2.690386         0.643487
 H         0.961454         0.313819         1.028727
 H        -2.514372         1.473370        -0.761703
 H        -2.224024         0.019491         0.021317
 H        -2.002446         0.924529         2.559395
 H        -2.006426         3.802911         1.412762
 H        -0.843944         4.570792         3.478159
 H        -0.500610         2.879030         3.935271
 H         0.731330         4.730869         1.565711
 H         1.688541         4.013489         2.938736
 H         0.051733         3.231096        -0.389051
