19
Iteration:  3127charge 0 multiplicity 1
 O         0.251055         0.135226         0.586463
 C        -0.589403         1.254284         0.611858
 C        -2.002022         1.218663         0.237445
 C        -1.741167         1.595638         1.606132
 C        -1.276995         3.043224         1.584508
 C        -0.558324         3.428397         2.870308
 C         0.800703         3.945058         2.401569
 O         1.052151         2.900168         1.367290
 C        -0.106705         2.678841         0.597689
 H         0.808066         0.317823         1.359146
 H        -2.339534         1.989357        -0.360406
 H        -2.426401         0.235533         0.135510
 H        -1.939581         0.921070         2.376397
 H        -2.156940         3.654950         1.271358
 H        -1.134871         4.037208         3.586349
 H        -0.366861         2.368432         3.358773
 H         0.805376         4.911265         1.820830
 H         1.582660         3.836120         3.162204
 H         0.152142         3.285799        -0.251675
