19
Iteration:  1416charge 0 multiplicity 1
 O         0.327202         0.215292         0.572114
 C        -0.528614         1.288929         0.562471
 C        -1.987186         1.023108         0.338042
 C        -1.714583         1.663359         1.668579
 C        -1.351470         3.126251         1.566895
 C        -0.680170         3.751385         2.794553
 C         0.888148         3.413855         2.566589
 O         1.082587         2.902937         1.200627
 C        -0.244859         2.821983         0.614464
 H         1.206810         0.480106         1.021780
 H        -2.668392         1.374669        -0.500989
 H        -2.106498        -0.110288         0.572482
 H        -1.867690         1.088985         2.658341
 H        -2.205856         3.625412         1.210537
 H        -0.772368         4.799667         2.655022
 H        -1.165764         3.454570         3.708767
 H         1.551445         4.291750         2.658055
 H         1.204454         2.675180         3.266155
 H        -0.158219         3.459137        -0.326437
