19
Iteration:  4409charge 0 multiplicity 1
 O         0.399931         0.214986         0.494879
 C        -0.596612         1.214595         0.670063
 C        -2.106894         1.147748         0.153467
 C        -1.702893         1.601324         1.609235
 C        -1.289245         3.030535         1.656754
 C        -0.643016         3.601134         2.936381
 C         0.855304         3.760770         2.452645
 O         1.064626         2.863044         1.365286
 C        -0.151645         2.679348         0.661737
 H         1.119550         0.680485         0.032073
 H        -2.591726         1.827528        -0.481072
 H        -2.661467         0.235116         0.285156
 H        -2.064876         0.941993         2.394928
 H        -2.011070         3.649551         1.179717
 H        -1.081148         4.661123         3.132322
 H        -0.808615         3.066607         3.883759
 H         0.946122         4.748454         1.978397
 H         1.681771         3.438890         3.098064
 H        -0.186135         3.164063        -0.309192
