19
Iteration:  4399
 O         0.382172         0.241635         0.526132
 C        -0.618211         1.225994         0.599873
 C        -2.086928         1.129930         0.186372
 C        -1.797400         1.487196         1.611299
 C        -1.270389         3.072314         1.678847
 C        -0.627025         3.588291         2.871179
 C         0.911831         3.745437         2.418336
 O         1.102517         2.850832         1.374651
 C        -0.219805         2.718715         0.653843
 H         1.176223         0.792715         0.438243
 H        -2.538234         1.880397        -0.469444
 H        -2.527286         0.119560        -0.002085
 H        -1.935558         1.011564         2.578041
 H        -2.022885         3.790137         1.400033
 H        -1.118813         4.636694         3.087376
 H        -0.807354         2.904621         3.744107
 H         1.081356         4.856549         2.204295
 H         1.588022         3.707436         3.263273
 H        -0.003644         3.290212        -0.258163
