19
Iteration:  1175charge 0 multiplicity 1
 O         0.261575         0.204544         0.584551
 C        -0.598206         1.287163         0.708578
 C        -1.965856         1.005710         0.328653
 C        -1.733199         1.563293         1.736348
 C        -1.382335         3.079063         1.482348
 C        -0.594344         3.705524         2.681873
 C         0.877569         3.307647         2.635509
 O         1.101661         3.142736         1.210295
 C        -0.155690         2.834089         0.545652
 H         1.194572         0.498479         0.683154
 H        -2.417937         1.787771        -0.379987
 H        -2.315873         0.021340         0.276558
 H        -1.943576         1.249566         2.707504
 H        -2.218714         3.569114         1.072122
 H        -0.773524         4.735590         2.544545
 H        -1.116007         3.488595         3.645456
 H         1.430558         4.173887         3.028866
 H         1.091306         2.404285         3.276797
 H         0.031583         3.225602        -0.369988
