19
Iteration:  2385
 O         0.212703         0.132455         0.531496
 C        -0.563786         1.278245         0.712936
 C        -1.919053         1.034348         0.320480
 C        -1.622761         1.623235         1.675456
 C        -1.349698         3.152109         1.560001
 C        -0.646963         3.654683         2.797356
 C         0.836391         3.436149         2.562422
 O         1.068863         3.141222         1.224903
 C        -0.192569         2.771748         0.509491
 H         1.189202         0.178242         0.717842
 H        -2.424752         1.629344        -0.327837
 H        -2.149186        -0.131597         0.272467
 H        -1.733884         1.118347         2.718474
 H        -2.153630         3.782691         1.173206
 H        -0.918794         4.754170         2.810550
 H        -1.059973         3.300015         3.812033
 H         1.605861         4.088152         2.869630
 H         0.969653         2.520336         3.307149
 H        -0.181355         3.080634        -0.486770
