19
Iteration:  4406charge 0 multiplicity 1
 O         0.398555         0.215733         0.503558
 C        -0.584950         1.217573         0.659678
 C        -2.105105         1.137688         0.152643
 C        -1.739834         1.569572         1.603096
 C        -1.253849         3.059136         1.687909
 C        -0.659582         3.589340         2.906937
 C         0.874004         3.748789         2.428753
 O         1.077898         2.867627         1.375565
 C        -0.190613         2.688542         0.660518
 H         1.082556         0.795655         0.130645
 H        -2.639150         1.813041        -0.481997
 H        -2.693803         0.266940         0.202529
 H        -1.974645         0.959655         2.466054
 H        -2.025006         3.673213         1.211256
 H        -1.090022         4.547266         3.105740
 H        -0.842507         3.099891         3.843368
 H         0.991355         4.755617         2.053011
 H         1.728091         3.521578         3.141134
 H        -0.086257         3.192057        -0.292984
