19
Iteration:  4032
 O         0.224027         0.047593         0.584231
 C        -0.567722         1.201064         0.668095
 C        -2.036961         1.226778         0.147748
 C        -1.762496         1.573064         1.544734
 C        -1.183877         3.070331         1.687226
 C        -0.543190         3.467911         2.931697
 C         0.740553         3.889583         2.407474
 O         1.066111         2.987308         1.297832
 C        -0.125772         2.687025         0.684227
 H         1.149545         0.360981         0.727871
 H        -2.271815         1.953759        -0.650229
 H        -2.249548         0.159240        -0.051584
 H        -2.102212         0.896092         2.407746
 H        -1.844015         3.755288         1.257095
 H        -1.043454         4.289189         3.421063
 H        -0.508501         2.788892         3.828454
 H         0.836016         4.966236         1.890002
 H         1.512713         3.792331         3.183215
 H        -0.221115         3.179524        -0.343911
