19
Iteration:   914
 O         0.335788         0.126660         0.600526
 C        -0.472887         1.291476         0.752993
 C        -1.847397         1.135081         0.331923
 C        -1.811361         1.690126         1.727203
 C        -1.437257         3.139353         1.582990
 C        -0.584771         3.760698         2.704626
 C         0.774595         3.096016         2.560296
 O         1.026690         3.186888         1.144597
 C        -0.206176         2.784916         0.565918
 H         1.204762         0.499765         0.622077
 H        -2.222708         1.528744        -0.500186
 H        -2.043394         0.050195         0.268286
 H        -2.030536         1.197294         2.748896
 H        -2.299167         3.699672         1.156066
 H        -0.330060         4.753218         2.514746
 H        -1.031445         3.823693         3.709396
 H         1.521940         3.706009         3.063523
 H         0.703315         2.067487         3.004623
 H        -0.102740         2.991133        -0.588007
