19
Iteration:  1999
 O         0.414842         0.329344         0.634878
 C        -0.593271         1.330932         0.648957
 C        -2.091270         1.063200         0.325325
 C        -1.624599         1.559523         1.726837
 C        -1.326705         3.060849         1.592101
 C        -0.690175         3.779629         2.704279
 C         0.800903         3.122442         2.592515
 O         1.070556         3.100751         1.184475
 C        -0.186459         2.792258         0.502651
 H         1.295749         0.691371         0.784935
 H        -2.729086         1.674321        -0.220109
 H        -2.298822        -0.072298         0.232976
 H        -1.745534         1.036814         2.740532
 H        -2.264318         3.586245         1.200621
 H        -0.512388         4.913303         2.438895
 H        -1.252261         3.754388         3.664976
 H         1.590612         3.755394         3.060416
 H         0.930091         2.119278         3.000452
 H        -0.089982         3.258599        -0.494346
