19
Iteration:  2279
 O         0.264054         0.125267         0.497749
 C        -0.526749         1.260462         0.621369
 C        -2.048952         0.997157         0.454660
 C        -1.589211         1.649884         1.725981
 C        -1.292529         3.079923         1.472109
 C        -0.635437         3.767479         2.702495
 C         0.736817         3.152521         2.674932
 O         1.039296         3.329389         1.221559
 C        -0.105565         2.811657         0.557954
 H         1.119200         0.442498         0.937978
 H        -2.706923         1.653123        -0.195304
 H        -2.174470        -0.216698         0.333307
 H        -1.495551         1.262007         2.796511
 H        -2.159832         3.597946         0.995612
 H        -0.588302         4.788714         2.467509
 H        -1.192727         3.507530         3.626565
 H         1.545871         3.692150         3.227673
 H         0.723530         2.099596         2.884151
 H        -0.235425         3.378530        -0.468776
