19
Iteration:   266charge 0 multiplicity 1
 O         0.139483         0.071850         0.450300
 C        -0.601321         1.263282         0.693318
 C        -2.109546         1.104362         0.234328
 C        -1.817079         1.547852         1.628638
 C        -1.188716         3.022837         1.588815
 C        -0.567675         3.594810         2.828799
 C         0.846424         3.898458         2.440981
 O         1.171569         2.985626         1.391136
 C        -0.032939         2.666006         0.692168
 H         0.941997         0.157541         0.872004
 H        -2.626572         1.750970        -0.406604
 H        -2.289207         0.052661         0.016032
 H        -2.006663         0.915382         2.545288
 H        -1.931096         3.674050         1.223905
 H        -0.992514         4.604456         3.001333
 H        -0.700785         2.973192         3.709937
 H         0.872300         4.852064         2.022754
 H         1.578183         3.848333         3.178241
 H        -0.022601         3.170801        -0.275428
