19
Iteration:   664charge 0 multiplicity 1
 O         0.428191         0.416639         0.783837
 C        -0.613161         1.370318         0.706918
 C        -1.994679         1.062382         0.257118
 C        -1.825692         1.570307         1.630720
 C        -1.431344         3.131400         1.630498
 C        -0.497810         3.767439         2.703075
 C         0.839856         3.064711         2.604966
 O         1.071773         2.978699         1.116349
 C        -0.225544         2.772464         0.493431
 H         1.263197         1.060605         0.799243
 H        -2.662778         1.612535        -0.603593
 H        -2.176180        -0.035050         0.266526
 H        -2.106666         0.905702         2.407238
 H        -2.196219         3.749605         1.203483
 H        -0.389670         4.861629         2.418988
 H        -0.860972         3.797696         3.783404
 H         1.607026         3.664716         3.004134
 H         0.900808         2.067882         3.095357
 H        -0.247222         3.224064        -0.462774
