19
Iteration:  4125
 O         0.208871         0.269781         0.543232
 C        -0.650363         1.242345         0.625179
 C        -2.014385         1.081117         0.203391
 C        -1.697186         1.564284         1.640251
 C        -1.319952         2.931230         1.559133
 C        -0.568124         3.564176         2.847118
 C         0.883221         3.840577         2.468761
 O         1.099197         2.842187         1.381019
 C        -0.100933         2.757441         0.676057
 H         1.018931         0.567902         0.123600
 H        -2.264537         1.929923        -0.474990
 H        -2.216619         0.025873         0.127951
 H        -2.276076         1.060123         2.459002
 H        -2.166263         3.649496         1.184024
 H        -1.119699         4.469712         3.255110
 H        -0.604788         2.956929         3.777772
 H         0.947862         4.940359         2.079636
 H         1.615646         3.638290         3.329748
 H        -0.101354         3.283337        -0.250397
