19
Iteration:  2430charge 0 multiplicity 1
 O         0.308161         0.150492         0.514602
 C        -0.533205         1.267203         0.740978
 C        -1.980980         1.099651         0.305190
 C        -1.700631         1.525543         1.714671
 C        -1.368814         3.049816         1.588929
 C        -0.563395         3.829764         2.693602
 C         0.845871         3.233174         2.630058
 O         1.021089         3.270860         1.168999
 C        -0.214241         2.744715         0.572765
 H         0.991231         0.047613         1.255120
 H        -2.317696         1.759593        -0.444144
 H        -2.352365         0.111463         0.203004
 H        -1.722145         0.835813         2.556763
 H        -2.198907         3.689354         1.227422
 H        -0.546610         4.927575         2.478967
 H        -1.200270         3.756108         3.663913
 H         1.536733         3.891046         3.144417
 H         1.109500         2.202289         3.030915
 H        -0.234539         3.146353        -0.381637
