19
Iteration:  1021
 O         0.386494         0.188319         0.559821
 C        -0.623645         1.168657         0.683456
 C        -2.020435         1.074663         0.257114
 C        -1.873024         1.630287         1.655170
 C        -1.359088         3.064771         1.606591
 C        -0.534701         3.760092         2.754626
 C         0.915426         3.375752         2.694758
 O         1.063768         3.158700         1.196020
 C        -0.172666         2.690259         0.519835
 H         1.149544         0.725101         0.946753
 H        -2.479885         1.664487        -0.601790
 H        -2.232789        -0.074343         0.193393
 H        -2.290776         1.093263         2.574189
 H        -2.102444         3.713396         1.171728
 H        -0.520831         4.795567         2.519269
 H        -0.999330         3.522657         3.784051
 H         1.623217         4.210061         2.948357
 H         1.061761         2.532517         3.358270
 H        -0.244356         3.190293        -0.416705
