19
Iteration:  3273
 O         0.335769         0.222181         0.480419
 C        -0.616955         1.234819         0.677334
 C        -1.941843         1.127182         0.229906
 C        -1.716493         1.647707         1.653159
 C        -1.336983         3.076982         1.575711
 C        -0.623859         3.564071         2.857855
 C         0.827283         3.716908         2.424193
 O         1.057050         2.840721         1.359646
 C        -0.175469         2.712954         0.636271
 H         1.007190         0.257854         1.162115
 H        -2.329733         1.874567        -0.511569
 H        -2.404735         0.203039         0.244497
 H        -1.961784         1.132450         2.592076
 H        -2.126047         3.768952         1.186677
 H        -0.971159         4.599733         3.281292
 H        -0.772241         2.925839         3.787147
 H         1.005264         4.774131         2.028687
 H         1.598044         3.382127         3.091482
 H        -0.167604         3.197022        -0.326178
