19
Iteration:  2265charge 0 multiplicity 1
 O         0.281431         0.043503         0.509599
 C        -0.508401         1.292352         0.651568
 C        -2.000499         1.093258         0.481054
 C        -1.537989         1.587118         1.786397
 C        -1.372583         3.141937         1.509148
 C        -0.733967         3.701048         2.666500
 C         0.733718         3.156123         2.562828
 O         1.076020         3.312359         1.245766
 C        -0.103014         2.902171         0.468102
 H         1.180592         0.149258         0.737530
 H        -2.543962         1.673879        -0.149333
 H        -2.316906        -0.043487         0.495537
 H        -1.895933         1.082738         2.749782
 H        -2.261409         3.740166         1.133442
 H        -0.560988         4.823318         2.728838
 H        -1.209214         3.435777         3.697193
 H         1.376663         3.712948         3.196543
 H         0.809721         2.094849         2.959515
 H         0.126171         3.258047        -0.516391
