19
Iteration:  4013
 O         0.220822         0.068956         0.552268
 C        -0.567549         1.198256         0.686124
 C        -1.928574         1.164489         0.165420
 C        -1.811535         1.664008         1.658390
 C        -1.319129         3.059671         1.585788
 C        -0.598564         3.423492         2.961719
 C         0.842449         3.904300         2.413008
 O         1.124759         2.989368         1.332543
 C        -0.139410         2.682102         0.597125
 H         1.143688         0.454661         0.550795
 H        -2.293643         1.898667        -0.462092
 H        -2.388740         0.188927         0.050345
 H        -2.419339         1.201884         2.405031
 H        -2.118504         3.834355         1.243834
 H        -1.150822         4.178202         3.601100
 H        -0.412594         2.515074         3.633280
 H         0.682769         4.849437         2.010250
 H         1.800932         3.802206         3.011203
 H         0.044381         3.077926        -0.374432
