19
Iteration:  3675charge 0 multiplicity 1
 O         0.296491         0.250983         0.655103
 C        -0.557926         1.327668         0.555308
 C        -2.008847         1.035831         0.216843
 C        -1.687076         1.652898         1.620606
 C        -1.339534         3.124059         1.581138
 C        -0.558703         3.419027         2.855526
 C         0.861872         3.794765         2.457362
 O         1.036598         2.763509         1.355138
 C        -0.212836         2.819686         0.555652
 H         0.917176         0.427526         1.376668
 H        -2.368773         1.707466        -0.650585
 H        -2.379696         0.031399        -0.022224
 H        -2.123041         1.019024         2.400174
 H        -2.061551         3.883885         1.368458
 H        -1.040676         4.185227         3.484020
 H        -0.606244         2.516352         3.508465
 H         0.852466         4.790098         1.997001
 H         1.754469         3.753487         3.190219
 H        -0.087234         3.457769        -0.291099
