19
Iteration:  2401
 O         0.266739         0.058177         0.498622
 C        -0.502286         1.228658         0.680733
 C        -2.031357         1.105842         0.366548
 C        -1.659290         1.571774         1.753346
 C        -1.307779         3.075152         1.522369
 C        -0.697489         3.789917         2.791985
 C         0.808455         3.316090         2.621004
 O         1.067816         3.288580         1.128513
 C        -0.093077         2.730623         0.590245
 H         1.068120         0.292584         0.946092
 H        -2.508153         1.820714        -0.423413
 H        -2.356701         0.128668         0.279106
 H        -2.006563         1.091364         2.642855
 H        -2.119956         3.687858         1.059971
 H        -0.860879         4.840598         2.973216
 H        -1.104310         3.198856         3.577400
 H         1.446000         4.134962         3.103753
 H         1.160256         2.366504         2.991350
 H        -0.125216         3.176628        -0.472989
