19
Iteration:  3338charge 0 multiplicity 1
 O         0.253342         0.130180         0.445164
 C        -0.557962         1.190355         0.711853
 C        -1.923544         1.077093         0.207238
 C        -1.853708         1.697923         1.607792
 C        -1.321574         3.051103         1.597641
 C        -0.553157         3.602782         2.974798
 C         0.802146         3.785768         2.398486
 O         1.138453         2.912814         1.341471
 C        -0.139887         2.720358         0.632457
 H         1.019590         0.273130         1.088734
 H        -2.306596         1.808519        -0.531049
 H        -2.423335         0.168866         0.227497
 H        -2.143869         1.128359         2.496413
 H        -2.249702         3.719702         1.412547
 H        -1.064952         4.557420         3.373257
 H        -0.566781         2.609668         3.536384
 H         0.688238         4.845214         2.054168
 H         1.507909         3.556280         3.110562
 H        -0.003583         3.231189        -0.287846
