19
Iteration:  1462
 O         0.471225         0.263452         0.554668
 C        -0.548372         1.244657         0.608612
 C        -2.071785         1.064923         0.361706
 C        -1.781982         1.615059         1.691700
 C        -1.353111         3.075794         1.584534
 C        -0.650432         3.769735         2.789267
 C         0.854452         3.398504         2.551525
 O         1.048608         2.916558         1.237527
 C        -0.185121         2.750717         0.548496
 H         1.233118         0.783981         1.064993
 H        -2.607738         1.838165        -0.387909
 H        -2.506311         0.116478         0.367662
 H        -2.207115         1.154589         2.529028
 H        -1.977452         3.718382         1.042826
 H        -0.927734         4.826757         2.572332
 H        -0.961288         3.464826         3.742563
 H         1.546276         4.302873         2.608340
 H         1.289338         2.657238         3.202886
 H        -0.208414         3.314794        -0.416747
