19
Iteration:  3113
 O         0.266174         0.221561         0.637091
 C        -0.602033         1.282313         0.592897
 C        -2.071987         1.163310         0.121155
 C        -1.676554         1.572923         1.607522
 C        -1.268482         3.039039         1.648645
 C        -0.564947         3.430796         2.948557
 C         0.747611         3.847523         2.345920
 O         1.148864         2.843596         1.333881
 C        -0.125293         2.735683         0.615118
 H         0.711786         0.197460         1.500139
 H        -2.616534         1.827448        -0.618818
 H        -2.411134         0.191520        -0.063762
 H        -1.952340         1.084671         2.584523
 H        -1.877142         3.897347         1.305657
 H        -1.025436         4.295968         3.381606
 H        -0.455596         2.760550         3.788499
 H         0.519284         4.865736         1.893976
 H         1.616310         3.911432         3.103316
 H        -0.254406         3.155444        -0.336134
