19
Iteration:  2436charge 0 multiplicity 1
 O         0.306364         0.182095         0.545800
 C        -0.552427         1.279965         0.711607
 C        -1.954525         1.067998         0.280084
 C        -1.672857         1.504563         1.705568
 C        -1.408636         3.092395         1.629380
 C        -0.574950         3.872869         2.716063
 C         0.838273         3.200131         2.628880
 O         1.023031         3.206224         1.128397
 C        -0.184447         2.787037         0.616479
 H         0.998350         0.029294         1.148449
 H        -2.436293         1.800873        -0.437147
 H        -2.171251        -0.106787         0.055585
 H        -1.812981         0.958547         2.686856
 H        -2.241592         3.593537         1.124415
 H        -0.442762         4.953252         2.639046
 H        -1.094150         3.666805         3.607454
 H         1.606000         3.950798         2.945040
 H         0.933176         2.239884         3.114223
 H        -0.345278         3.148894        -0.498806
