19
Iteration:  2250charge 0 multiplicity 1
 O         0.231518         0.127460         0.518346
 C        -0.461299         1.281240         0.713703
 C        -1.907998         1.095261         0.385388
 C        -1.513989         1.666099         1.712178
 C        -1.382956         3.105321         1.522999
 C        -0.703280         3.766375         2.812658
 C         0.736320         3.206733         2.635025
 O         1.057017         3.223172         1.148040
 C        -0.168091         2.727385         0.500318
 H         1.196025         0.319817         0.790846
 H        -2.538859         1.755879        -0.320123
 H        -2.216211         0.133281         0.364610
 H        -1.762235         1.203097         2.620960
 H        -2.281712         3.572732         1.137938
 H        -0.880558         4.885415         2.801050
 H        -1.232074         3.377919         3.654885
 H         1.573706         3.794903         3.082590
 H         0.777377         2.140027         2.955755
 H        -0.283880         3.132414        -0.510367
