19
Iteration:  1233
 O         0.240803         0.214593         0.636169
 C        -0.526459         1.333435         0.723492
 C        -1.949250         1.060427         0.231827
 C        -1.669004         1.521802         1.671378
 C        -1.382724         3.068241         1.602686
 C        -0.574893         3.739563         2.688551
 C         0.818663         3.209692         2.611446
 O         1.050136         3.226562         1.157169
 C        -0.182851         2.804755         0.563336
 H         0.857234         0.380932         1.383648
 H        -2.703841         1.541558        -0.289243
 H        -2.145621        -0.053644         0.333817
 H        -1.737967         0.929034         2.670070
 H        -2.219202         3.712711         1.153103
 H        -0.485226         4.835120         2.365528
 H        -1.070647         3.662782         3.644942
 H         1.658386         3.863005         3.014144
 H         1.003341         2.215455         3.027646
 H        -0.065813         3.108327        -0.481953
