19
Iteration:   431charge 0 multiplicity 1
 O         0.395069         0.233532         0.679626
 C        -0.602310         1.233061         0.633339
 C        -1.990773         1.012062         0.266079
 C        -1.709355         1.612826         1.659134
 C        -1.326371         3.175298         1.618448
 C        -0.537369         3.772569         2.808387
 C         0.862902         3.218361         2.642932
 O         0.998753         3.028282         1.107963
 C        -0.305400         2.842815         0.499339
 H         1.168501         0.588591         1.011832
 H        -2.329421         1.677531        -0.537225
 H        -2.345213         0.012751         0.273467
 H        -2.098191         1.127021         2.518727
 H        -2.088347         3.770540         1.231992
 H        -0.320076         4.818192         2.512107
 H        -1.046180         3.693002         3.792975
 H         1.601808         4.068067         2.834268
 H         0.986191         2.338393         3.255537
 H        -0.377563         3.409866        -0.397122
