19
Iteration:   528charge 0 multiplicity 1
 O         0.327272         0.371086         0.502059
 C        -0.656203         1.277162         0.604508
 C        -2.028086         1.001679         0.316136
 C        -1.721659         1.580904         1.713107
 C        -1.366465         3.074208         1.557719
 C        -0.572100         3.867947         2.689104
 C         0.867434         3.372601         2.560581
 O         1.108315         2.845857         1.314025
 C        -0.190886         2.746243         0.635528
 H         1.169463         0.729952         0.953118
 H        -2.492874         1.503313        -0.489342
 H        -2.211076        -0.003761         0.517569
 H        -2.074666         0.978632         2.546109
 H        -2.192297         3.695677         1.180885
 H        -0.578594         4.887398         2.459844
 H        -0.934173         3.683769         3.662680
 H         1.588806         4.223112         2.876189
 H         1.090168         2.568506         3.254642
 H        -0.169702         3.309110        -0.309992
