19
Iteration:  2247
 O         0.244199         0.144388         0.521358
 C        -0.489044         1.275194         0.710227
 C        -1.902649         1.107449         0.373822
 C        -1.531490         1.661593         1.704537
 C        -1.366952         3.091682         1.526381
 C        -0.682654         3.779323         2.811029
 C         0.727066         3.218834         2.636650
 O         1.032280         3.206494         1.134433
 C        -0.152648         2.716213         0.529463
 H         1.117486         0.340591         0.803277
 H        -2.452118         1.733047        -0.376350
 H        -2.199483        -0.031926         0.263691
 H        -1.707452         1.209483         2.719831
 H        -2.232999         3.634786         1.129405
 H        -0.858956         4.809310         2.849876
 H        -1.196258         3.400478         3.690375
 H         1.590282         3.793722         3.054298
 H         0.781060         2.209133         3.016555
 H        -0.333425         3.190566        -0.521896
