19
Iteration:  2888
 O         0.297582         0.131984         0.511762
 C        -0.577558         1.177700         0.663678
 C        -2.021019         1.247722         0.237521
 C        -1.737183         1.580438         1.646378
 C        -1.316448         3.011550         1.597006
 C        -0.577537         3.556507         2.891659
 C         0.804106         3.782823         2.440409
 O         1.087772         2.974025         1.300643
 C        -0.107017         2.654665         0.600633
 H         0.912096         0.295021         1.222525
 H        -2.410757         2.171685        -0.351644
 H        -2.491863         0.299766        -0.013507
 H        -2.256785         1.241648         2.639266
 H        -2.096422         3.629282         1.146188
 H        -1.066252         4.391285         3.343759
 H        -0.649622         2.685373         3.565299
 H         0.921972         4.855580         2.303160
 H         1.545923         3.564807         3.211591
 H        -0.028227         3.121810        -0.363715
