19
Iteration:  4623charge 0 multiplicity 1
 O         0.315079         0.299744         0.668558
 C        -0.589572         1.319205         0.627228
 C        -1.989550         1.108262         0.162049
 C        -1.817160         1.612191         1.573356
 C        -1.368311         3.033130         1.683087
 C        -0.570961         3.391544         2.988991
 C         0.893345         3.690007         2.420074
 O         1.128143         2.949116         1.187959
 C        -0.193906         2.766058         0.557815
 H         1.005499         0.346916         1.366360
 H        -2.234046         1.753061        -0.674386
 H        -2.317922         0.024617         0.018586
 H        -2.220275         0.869136         2.290569
 H        -2.144146         3.807699         1.562815
 H        -0.977036         4.276705         3.318758
 H        -0.578192         2.606412         3.754393
 H         0.982818         4.800768         2.338295
 H         1.558604         3.385833         3.185281
 H        -0.380974         3.202046        -0.387157
