19
Iteration:   554charge 0 multiplicity 1
 O         0.429098         0.195752         0.467103
 C        -0.612672         1.174414         0.705691
 C        -2.110652         1.247495         0.313090
 C        -1.655546         1.544513         1.731211
 C        -1.316111         3.029902         1.577087
 C        -0.649848         3.880428         2.703510
 C         0.880191         3.483380         2.644199
 O         1.072553         2.877584         1.261729
 C        -0.243337         2.689293         0.555482
 H         1.304663         0.722946         0.790006
 H        -2.343069         2.140544        -0.374339
 H        -2.496035         0.182218         0.083971
 H        -2.068292         0.950047         2.580516
 H        -2.182005         3.555737         1.275161
 H        -0.697140         4.967418         2.349644
 H        -1.268531         3.711891         3.669258
 H         1.546585         4.253158         2.881845
 H         1.174964         2.652090         3.333984
 H        -0.347987         3.185771        -0.383532
