19
Iteration:  1933
 O         0.346237         0.274106         0.582115
 C        -0.588534         1.291005         0.680793
 C        -2.063867         1.011644         0.306625
 C        -1.734570         1.614446         1.736905
 C        -1.282671         3.079713         1.503849
 C        -0.658114         3.630880         2.797492
 C         0.905879         3.322818         2.573877
 O         1.047842         3.192247         1.189039
 C        -0.135665         2.697488         0.499915
 H         1.002970         0.518456         1.367252
 H        -2.641769         1.659411        -0.318624
 H        -2.357046        -0.024896         0.187113
 H        -1.940209         1.274081         2.745730
 H        -2.028149         3.870025         1.120188
 H        -0.989445         4.753786         2.922229
 H        -1.096991         3.019348         3.605335
 H         1.634716         4.157759         2.765223
 H         1.172022         2.484834         3.206442
 H        -0.217979         3.154002        -0.507379
