19
Iteration:  1048
 O         0.283772         0.166085         0.590266
 C        -0.542218         1.290781         0.705981
 C        -1.994462         1.166050         0.306757
 C        -1.520692         1.583996         1.744612
 C        -1.381291         3.096171         1.555589
 C        -0.676883         3.758127         2.683173
 C         0.750714         3.241514         2.599576
 O         1.079019         3.098506         1.178266
 C        -0.146956         2.806403         0.529361
 H         0.967057         0.199369         1.310495
 H        -2.605081         1.807329        -0.284729
 H        -2.170517         0.158540         0.215587
 H        -1.744973         1.066895         2.625840
 H        -2.248831         3.514973         0.980424
 H        -0.647734         4.890094         2.700608
 H        -1.021347         3.364008         3.594911
 H         1.550141         3.878523         3.007083
 H         0.734255         2.249188         3.138242
 H        -0.323443         3.424736        -0.458273
