19
Iteration:   732
 O         0.281883         0.229689         0.607609
 C        -0.577955         1.263049         0.791686
 C        -2.010897         1.125236         0.350686
 C        -1.663548         1.672347         1.683312
 C        -1.323964         3.137075         1.468493
 C        -0.677168         3.633838         2.734589
 C         0.800225         3.193022         2.565575
 O         1.083850         3.226024         1.146277
 C        -0.075662         2.695432         0.554058
 H         1.090793         0.497645         1.001960
 H        -2.564063         1.783151        -0.497247
 H        -2.389186         0.080264         0.395303
 H        -1.868803         1.185521         2.650683
 H        -2.273466         3.584921         1.156811
 H        -0.628610         4.808318         2.873232
 H        -1.095040         3.285227         3.692568
 H         1.538281         3.797458         3.077159
 H         0.891770         2.153489         2.940251
 H        -0.054095         3.001685        -0.506291
