19
Iteration:   782charge 0 multiplicity 1
 O         0.162566         0.091761         0.500332
 C        -0.507511         1.314186         0.675111
 C        -1.945256         1.087988         0.246966
 C        -1.578886         1.537999         1.731810
 C        -1.339556         3.102273         1.670991
 C        -0.657869         3.880740         2.731824
 C         0.812110         3.384306         2.615569
 O         1.067551         3.091849         1.238734
 C        -0.148628         2.719162         0.509619
 H         1.015546         0.017400         1.139372
 H        -2.368674         1.793577        -0.349920
 H        -2.166441         0.102318         0.070203
 H        -2.091488         0.941129         2.429882
 H        -2.251902         3.485089         1.194612
 H        -0.655069         4.863340         2.519433
 H        -0.910829         3.793408         3.804938
 H         1.578916         4.088356         2.946677
 H         0.881399         2.519365         3.322398
 H        -0.177952         3.238792        -0.457026
