19
Iteration:  1723
 O         0.414003         0.291198         0.673255
 C        -0.656364         1.251257         0.497413
 C        -2.146685         1.001682         0.329304
 C        -1.649146         1.571713         1.607469
 C        -1.287768         3.120200         1.601225
 C        -0.565091         3.806290         2.716905
 C         0.889967         3.294409         2.594009
 O         0.999608         3.017752         1.233065
 C        -0.218001         2.769541         0.607276
 H         1.063866         0.804175         1.242404
 H        -2.580617         1.477226        -0.476736
 H        -2.083495        -0.175787         0.244448
 H        -1.948453         0.982148         2.596888
 H        -2.166086         3.702933         1.114528
 H        -0.623671         4.911402         2.575410
 H        -1.044042         3.569696         3.686863
 H         1.533265         4.201893         2.775508
 H         1.275549         2.554327         3.296986
 H        -0.298030         3.346154        -0.370288
