19
Iteration:   863
 O         0.358403         0.313009         0.669600
 C        -0.534342         1.395444         0.571456
 C        -2.043709         0.965607         0.345076
 C        -1.654106         1.654827         1.671002
 C        -1.369954         3.169839         1.557457
 C        -0.632455         3.723635         2.709098
 C         0.868137         3.254689         2.637196
 O         1.038402         2.847784         1.208589
 C        -0.205010         2.886650         0.479855
 H         1.134580         0.614325         1.253416
 H        -2.790770         1.433557        -0.522134
 H        -2.379400        -0.174464         0.364743
 H        -1.913211         1.142714         2.666864
 H        -2.266214         3.738458         1.234884
 H        -0.564234         4.894174         2.558103
 H        -1.014817         3.551128         3.703336
 H         1.557806         4.047155         2.839337
 H         0.940891         2.421635         3.348934
 H        -0.044175         3.249810        -0.523943
