19
Iteration:  3988
 O         0.273295         0.195287         0.569365
 C        -0.576979         1.275616         0.658368
 C        -2.062948         1.084931         0.112972
 C        -1.824681         1.617849         1.628584
 C        -1.295179         3.026755         1.599334
 C        -0.550838         3.457509         2.877863
 C         0.832049         3.880218         2.405610
 O         1.140342         2.928579         1.341351
 C        -0.150612         2.698836         0.655203
 H         0.799829         0.167901         1.388076
 H        -2.585952         1.845907        -0.508823
 H        -2.354176         0.036046         0.009972
 H        -2.042896         1.091537         2.612933
 H        -1.901637         3.838760         1.262059
 H        -1.027313         4.146611         3.560863
 H        -0.245794         2.627028         3.597199
 H         0.863633         4.970335         2.056924
 H         1.618558         3.614274         3.094332
 H        -0.042857         3.273250        -0.270613
