19
Iteration:  2272charge 0 multiplicity 1
 O         0.283972         0.059141         0.500313
 C        -0.540554         1.269173         0.627270
 C        -2.038039         1.037246         0.503017
 C        -1.573061         1.611712         1.778976
 C        -1.362941         3.089575         1.467580
 C        -0.639265         3.720512         2.673891
 C         0.692796         3.138147         2.609622
 O         1.045434         3.336409         1.235417
 C        -0.045039         2.895010         0.533960
 H         1.122694         0.341076         0.833345
 H        -2.609544         1.652941        -0.293433
 H        -2.200561         0.065837         0.333218
 H        -1.613921         1.253500         2.755584
 H        -2.137537         3.720065         1.069493
 H        -0.637512         4.845427         2.610693
 H        -1.155134         3.499496         3.572066
 H         1.430076         3.765288         3.160908
 H         0.797258         2.076008         2.912483
 H        -0.044066         3.419993        -0.428884
