19
Iteration:  3474
 O         0.225963         0.130612         0.568008
 C        -0.537059         1.264216         0.621724
 C        -2.041042         1.091955         0.217823
 C        -1.638442         1.588067         1.582343
 C        -1.340479         3.106137         1.582713
 C        -0.589427         3.541335         2.914594
 C         0.814333         3.765771         2.470633
 O         1.054895         2.895336         1.325242
 C        -0.131905         2.789340         0.615137
 H         1.068436         0.384046         1.061193
 H        -2.461387         1.765459        -0.558048
 H        -2.238797         0.077930         0.221041
 H        -1.998773         1.048620         2.496670
 H        -1.964740         3.734875         0.968970
 H        -0.961485         4.516059         3.285180
 H        -0.718584         2.715245         3.617764
 H         0.948322         4.790760         2.288037
 H         1.664425         3.507365         3.171193
 H        -0.116484         3.373115        -0.270608
