19
Iteration:  4216charge 0 multiplicity 1
 O         0.338160         0.128251         0.590845
 C        -0.614536         1.238441         0.624758
 C        -2.011696         1.129387         0.158400
 C        -1.743201         1.630983         1.580584
 C        -1.295687         3.057532         1.650289
 C        -0.535897         3.525658         2.934400
 C         0.819854         3.833349         2.472519
 O         1.046834         2.959025         1.360543
 C        -0.122382         2.711645         0.573871
 H         0.248371        -0.249132        -0.339781
 H        -2.671722         1.727548        -0.636670
 H        -2.450489         0.108403         0.257128
 H        -1.928675         1.080623         2.478231
 H        -2.177777         3.786936         1.400652
 H        -1.156868         4.207512         3.443173
 H        -0.433435         2.755104         3.732696
 H         1.108049         4.962045         2.295375
 H         1.557528         3.546653         3.189653
 H        -0.056072         3.250529        -0.341018
