19
Iteration:  3469
 O         0.226004         0.142113         0.558556
 C        -0.584761         1.267926         0.670677
 C        -2.032513         1.101126         0.170221
 C        -1.630393         1.621873         1.600250
 C        -1.284499         3.058805         1.590152
 C        -0.623631         3.548449         2.903575
 C         0.831308         3.745601         2.510294
 O         1.075463         2.914043         1.307177
 C        -0.147542         2.736298         0.586083
 H         1.074820         0.398137         0.910463
 H        -2.508675         1.725758        -0.567912
 H        -2.257955        -0.022753         0.280192
 H        -1.852772         1.195207         2.554669
 H        -1.945931         3.912675         1.121148
 H        -1.076659         4.455406         3.376588
 H        -0.827642         2.752745         3.662729
 H         0.896941         4.901304         2.307877
 H         1.624915         3.707950         3.235966
 H        -0.137825         3.202855        -0.476749
