19
Iteration:  1449charge 0 multiplicity 1
 O         0.437290         0.352638         0.636474
 C        -0.663523         1.223361         0.587947
 C        -2.117548         1.150069         0.315780
 C        -1.578931         1.583308         1.693005
 C        -1.320625         3.080245         1.552526
 C        -0.713905         3.733959         2.746966
 C         0.862827         3.432401         2.579248
 O         1.105474         2.873146         1.201019
 C        -0.217859         2.688708         0.555092
 H         1.131551         0.828914         1.035032
 H        -2.663138         1.859175        -0.409396
 H        -2.558337         0.120780         0.303538
 H        -1.723874         0.984365         2.640409
 H        -2.236407         3.560156         1.247666
 H        -0.807634         4.786932         2.833733
 H        -1.135946         3.324109         3.646705
 H         1.433745         4.361451         2.719725
 H         1.144144         2.751901         3.329760
 H        -0.117943         3.199453        -0.485758
