19
Iteration:  2805
 O         0.360999         0.303976         0.673348
 C        -0.569176         1.296434         0.611826
 C        -1.989720         1.185568         0.245085
 C        -1.808028         1.601389         1.656689
 C        -1.364242         3.099531         1.641532
 C        -0.581642         3.403358         2.879294
 C         0.849596         3.710355         2.411033
 O         1.053782         2.766836         1.273082
 C        -0.139344         2.755375         0.553881
 H         1.139879         0.730793         0.977217
 H        -2.427424         1.808332        -0.540502
 H        -2.281146         0.192657         0.152931
 H        -2.311070         1.146568         2.403145
 H        -1.999675         3.901049         1.204829
 H        -1.037505         4.310573         3.427218
 H        -0.819055         2.485067         3.581110
 H         0.678919         4.742921         1.830351
 H         1.810931         3.659506         2.925067
 H        -0.007940         3.353625        -0.457057
