19
Iteration:  3731charge 0 multiplicity 1
 O         0.333929         0.153698         0.540862
 C        -0.587039         1.232225         0.758810
 C        -2.020166         1.160469         0.100792
 C        -1.834452         1.645727         1.621900
 C        -1.342550         3.039386         1.640510
 C        -0.553419         3.539863         2.944038
 C         0.833130         3.765750         2.442101
 O         1.055712         2.991284         1.281841
 C        -0.131829         2.629291         0.592308
 H         1.165201         0.310353         0.994650
 H        -2.102151         2.015399        -0.675749
 H        -2.329753         0.125483         0.120773
 H        -2.167355         0.985890         2.508718
 H        -2.079776         3.746964         1.276734
 H        -1.058816         4.444862         3.394417
 H        -0.684365         2.815443         3.753173
 H         1.140600         4.796112         2.195113
 H         1.666406         3.410195         3.126933
 H        -0.002648         2.971350        -0.431438
