19
Iteration:  4377charge 0 multiplicity 1
 O         0.275437         0.301458         0.522731
 C        -0.578424         1.330483         0.638279
 C        -1.964714         1.097766         0.155509
 C        -1.668783         1.563191         1.611544
 C        -1.365911         3.031233         1.661917
 C        -0.580336         3.540578         2.901508
 C         0.895757         3.751954         2.402205
 O         1.009719         2.820404         1.346673
 C        -0.165209         2.748997         0.623230
 H         0.717541         0.329214         1.430158
 H        -2.656584         1.599965        -0.505693
 H        -2.332098         0.076293         0.329745
 H        -2.102481         0.961448         2.388058
 H        -2.162237         3.547023         1.168184
 H        -1.042312         4.480628         3.423006
 H        -0.505416         2.752193         3.691058
 H         1.165130         4.831245         2.108625
 H         1.694476         3.539327         3.108888
 H        -0.057074         3.258148        -0.353721
