19
Iteration:    95charge 0 multiplicity 1
 O         0.222732         0.019159         0.616030
 C        -0.492287         1.262366         0.710461
 C        -1.879442         1.085414         0.319591
 C        -1.730737         1.618572         1.691719
 C        -1.385953         3.128228         1.578261
 C        -0.527588         3.777465         2.777975
 C         0.844831         3.180204         2.595691
 O         1.014415         3.328144         1.142358
 C        -0.237427         2.787060         0.523370
 H         1.087407         0.169867         0.992480
 H        -2.285004         1.791836        -0.505518
 H        -2.223982         0.064537         0.264022
 H        -2.100948         0.951593         2.496551
 H        -2.212528         3.841329         1.238348
 H        -0.392532         4.884065         2.619691
 H        -0.968248         3.685870         3.812271
 H         1.681521         3.803078         2.957414
 H         0.859991         2.064139         2.758311
 H        -0.191291         3.220508        -0.500558
