19
Iteration:  3019
 O         0.205824         0.197430         0.556241
 C        -0.556438         1.306868         0.574854
 C        -2.008988         1.018510         0.244144
 C        -1.670169         1.577036         1.575825
 C        -1.348664         3.077379         1.552353
 C        -0.538891         3.616136         2.881493
 C         0.944847         3.774139         2.553365
 O         1.011322         2.898188         1.341901
 C        -0.184215         2.757328         0.561243
 H         0.931991        -0.025176         1.163763
 H        -2.598615         1.610614        -0.459475
 H        -2.362947         0.021365         0.261827
 H        -1.711858         1.099293         2.492766
 H        -2.168424         3.677521         1.169984
 H        -1.087873         4.387880         3.404327
 H        -0.676278         2.794983         3.672970
 H         1.261460         4.818804         2.282571
 H         1.445178         3.370741         3.420888
 H        -0.009914         3.283023        -0.470796
