19
Iteration:  2306
 O         0.392425         0.266607         0.491380
 C        -0.557239         1.277277         0.645589
 C        -1.995637         0.986329         0.350773
 C        -1.679533         1.613505         1.747028
 C        -1.424240         3.146754         1.611972
 C        -0.595851         3.835620         2.727503
 C         0.774018         3.254903         2.590700
 O         1.036500         2.993044         1.207293
 C        -0.168987         2.807465         0.547367
 H         1.134273         0.588609         1.085051
 H        -2.479237         1.553583        -0.496509
 H        -2.149183        -0.041129         0.315463
 H        -1.955574         1.072914         2.641703
 H        -2.352243         3.622793         1.276336
 H        -0.541452         4.950861         2.507068
 H        -0.891415         3.576038         3.753771
 H         1.529490         3.970774         2.911965
 H         0.885847         2.322899         3.219696
 H        -0.123930         3.267210        -0.418015
