19
Iteration:  2704charge 0 multiplicity 1
 O         0.226602         0.083220         0.395327
 C        -0.586508         1.214263         0.630513
 C        -2.033267         1.167439         0.215710
 C        -1.829812         1.564124         1.631379
 C        -1.277628         3.048747         1.657155
 C        -0.529508         3.591204         2.906113
 C         0.766397         3.901286         2.368523
 O         1.153529         2.921247         1.423644
 C        -0.028747         2.677452         0.737642
 H         1.008238         0.179691         1.003827
 H        -2.457017         1.938124        -0.529803
 H        -2.433624         0.056498         0.330191
 H        -2.263451         0.847387         2.459972
 H        -2.080222         3.617463         1.190963
 H        -1.213528         4.391574         3.188504
 H        -0.632399         2.748909         3.632364
 H         0.776255         4.742780         1.708552
 H         1.583811         4.180201         3.013336
 H         0.013061         3.340962        -0.230346
