19
Iteration:  3471charge 0 multiplicity 1
 O         0.224533         0.137267         0.561905
 C        -0.564175         1.265874         0.656431
 C        -2.041362         1.100301         0.182447
 C        -1.628330         1.608660         1.591539
 C        -1.306596         3.072143         1.590507
 C        -0.606720         3.545614         2.906228
 C         0.825024         3.751688         2.497820
 O         1.066058         2.905078         1.312397
 C        -0.141934         2.758428         0.597748
 H         1.071821         0.399195         0.968444
 H        -2.469534         1.721309        -0.538272
 H        -2.239881         0.004225         0.273653
 H        -1.898734         1.153055         2.528226
 H        -1.959282         3.878911         1.019987
 H        -1.041359         4.511810         3.356855
 H        -0.796901         2.721586         3.652060
 H         0.915464         4.858529         2.329041
 H         1.621504         3.660105         3.183493
 H        -0.135819         3.270105        -0.402874
