19
Iteration:  3174charge 0 multiplicity 1
 O         0.233139         0.095706         0.507488
 C        -0.588670         1.220445         0.603462
 C        -1.995477         1.152799         0.123401
 C        -1.805646         1.570562         1.638689
 C        -1.291176         2.941943         1.668334
 C        -0.605001         3.599419         3.026276
 C         0.834546         3.898990         2.399401
 O         1.132679         2.993690         1.332426
 C        -0.093397         2.646618         0.642332
 H         1.032401         0.074349         1.020665
 H        -2.435071         1.910684        -0.537151
 H        -2.241490         0.041306         0.144783
 H        -2.405891         1.152242         2.512620
 H        -1.875505         3.760684         1.194010
 H        -1.141997         4.616069         3.084619
 H        -0.660162         2.872801         3.908093
 H         0.918509         4.920459         1.897696
 H         1.628422         3.727547         3.097692
 H         0.015912         3.212996        -0.350022
