19
Iteration:  2588
 O         0.310731         0.188425         0.480472
 C        -0.553084         1.196991         0.682499
 C        -1.975709         1.043474         0.307437
 C        -1.659779         1.657162         1.673952
 C        -1.304665         3.154568         1.535684
 C        -0.693429         3.741561         2.927112
 C         0.874740         3.401469         2.562384
 O         1.041599         3.077179         1.184029
 C        -0.227808         2.692879         0.580178
 H         1.117836         0.440229         0.940501
 H        -2.419121         1.584170        -0.461086
 H        -2.140924        -0.098667         0.349008
 H        -2.185295         1.167518         2.521659
 H        -2.062118         3.892064         1.173650
 H        -0.906294         4.818208         2.857187
 H        -1.046311         3.257841         3.823302
 H         1.469465         4.348310         2.758844
 H         1.386109         2.688121         3.248307
 H        -0.224741         3.094433        -0.448161
