19
Iteration:  4417charge 0 multiplicity 1
 O         0.377152         0.209994         0.486750
 C        -0.614486         1.202562         0.621480
 C        -2.061559         1.174375         0.212371
 C        -1.656286         1.579691         1.640484
 C        -1.359379         3.015684         1.600058
 C        -0.599396         3.654526         2.981602
 C         0.795951         3.786692         2.483911
 O         1.039154         2.838093         1.334641
 C        -0.099106         2.666258         0.645314
 H         1.085987         0.421930        -0.119723
 H        -2.401910         1.876578        -0.501822
 H        -2.411371         0.189315         0.251968
 H        -2.282552         1.091558         2.358262
 H        -2.105971         3.722786         1.222619
 H        -0.965589         4.631268         3.193954
 H        -0.669653         2.941877         3.772867
 H         0.989346         4.788004         2.138008
 H         1.574620         3.526967         3.267839
 H        -0.190038         3.170524        -0.309870
