19
Iteration:  3873
 O         0.170817         0.199595         0.482332
 C        -0.583341         1.298608         0.577438
 C        -2.035153         1.043851         0.213670
 C        -1.588243         1.561047         1.696198
 C        -1.276811         3.090910         1.621796
 C        -0.660685         3.575420         2.871088
 C         0.849383         3.824787         2.431712
 O         1.078872         2.820579         1.397345
 C        -0.105356         2.780863         0.622261
 H         0.914863         0.310937         1.089166
 H        -2.346880         1.831059        -0.460760
 H        -2.194173        -0.049436         0.066416
 H        -1.668915         0.896040         2.553086
 H        -2.058853         3.648347         1.160952
 H        -1.288509         4.450300         3.156623
 H        -0.695694         2.839314         3.651211
 H         0.885185         4.876814         2.024775
 H         1.485783         3.508920         3.283691
 H        -0.077568         3.351266        -0.376222
