19
Iteration:  3752charge 0 multiplicity 1
 O         0.215818         0.119478         0.553254
 C        -0.536085         1.258045         0.620995
 C        -1.929691         1.133248         0.181740
 C        -1.714999         1.596161         1.638194
 C        -1.299574         3.057806         1.591010
 C        -0.639692         3.481451         2.886067
 C         0.810641         3.784569         2.450610
 O         1.170799         2.927656         1.278880
 C        -0.222105         2.794089         0.649378
 H         0.878584         0.256353         1.285880
 H        -2.494803         1.952411        -0.323458
 H        -2.312854         0.122516         0.259758
 H        -2.297332         0.958668         2.398102
 H        -1.979092         3.807878         1.248530
 H        -1.086600         4.345847         3.412211
 H        -0.721830         2.802216         3.711040
 H         0.948767         4.843119         2.156819
 H         1.625415         3.672881         3.268905
 H        -0.213946         3.309244        -0.321487
