19
Iteration:  2594charge 0 multiplicity 1
 O         0.324155         0.153596         0.463886
 C        -0.556236         1.199448         0.690561
 C        -1.978500         1.014282         0.301627
 C        -1.725728         1.673928         1.655207
 C        -1.305298         3.147865         1.584943
 C        -0.657773         3.734211         2.925539
 C         0.880072         3.456122         2.519422
 O         1.069049         3.037664         1.220382
 C        -0.200778         2.750811         0.568899
 H         1.152351         0.549246         0.944849
 H        -2.563649         1.414475        -0.669899
 H        -2.248869         0.009669         0.357434
 H        -2.074744         1.107970         2.552770
 H        -2.120325         3.693142         1.093028
 H        -0.819546         4.847674         3.063400
 H        -1.210243         3.282408         3.866151
 H         1.368126         4.420018         2.654041
 H         1.244776         2.763633         3.289083
 H        -0.334373         3.228744        -0.426762
