19
Iteration:  2303charge 0 multiplicity 1
 O         0.367769         0.260992         0.486973
 C        -0.570647         1.271115         0.643867
 C        -1.995955         0.984140         0.361450
 C        -1.650544         1.582199         1.754884
 C        -1.421254         3.149162         1.600985
 C        -0.584513         3.851626         2.742174
 C         0.763905         3.230107         2.601589
 O         1.043265         3.042297         1.219512
 C        -0.155151         2.801092         0.523999
 H         1.090871         0.577884         1.118269
 H        -2.519357         1.505635        -0.584077
 H        -2.151687        -0.072419         0.426852
 H        -1.999076         1.012023         2.576294
 H        -2.291939         3.732511         1.291287
 H        -0.561605         4.908906         2.539575
 H        -0.989045         3.601865         3.682485
 H         1.542949         3.980240         2.913484
 H         0.870096         2.314444         3.154762
 H        -0.047585         3.255313        -0.541935
