19
Iteration:  3762
 O         0.224817         0.098562         0.577122
 C        -0.588389         1.334645         0.608417
 C        -2.024114         1.118158         0.187237
 C        -1.700995         1.582957         1.597464
 C        -1.359853         3.026023         1.623437
 C        -0.575435         3.488337         2.898204
 C         0.835464         3.836966         2.457431
 O         1.122865         2.938035         1.361234
 C        -0.107653         2.795141         0.561212
 H         0.977231         0.043373         1.221363
 H        -2.485047         1.770431        -0.562942
 H        -2.428691         0.121636         0.220454
 H        -1.781541         0.982103         2.561038
 H        -2.157981         3.655533         1.293433
 H        -1.150464         4.339820         3.198533
 H        -0.564501         2.599621         3.484626
 H         0.941532         4.865879         2.067776
 H         1.570095         3.497419         3.287879
 H        -0.081787         3.446716        -0.353995
