19
Iteration:  1187charge 0 multiplicity 1
 O         0.299943         0.151624         0.523807
 C        -0.523417         1.241973         0.772024
 C        -2.030800         1.087300         0.361211
 C        -1.669645         1.647409         1.709984
 C        -1.351323         3.129840         1.511944
 C        -0.698378         3.737629         2.764178
 C         0.796436         3.307105         2.570189
 O         1.068934         3.210611         1.184384
 C        -0.096999         2.662842         0.568112
 H         1.159502         0.450723         0.749204
 H        -2.385143         1.664238        -0.494138
 H        -2.178433         0.058357         0.226912
 H        -2.083722         1.220878         2.597912
 H        -2.082063         3.792324         1.089711
 H        -0.655207         4.804240         2.822079
 H        -1.118632         3.331037         3.702996
 H         1.588582         3.981772         2.930448
 H         1.013014         2.309197         3.011194
 H        -0.122112         2.927438        -0.428320
