19
Iteration:  2690charge 0 multiplicity 1
 O         0.217194         0.179044         0.404655
 C        -0.599673         1.241544         0.607948
 C        -2.004955         1.091392         0.183947
 C        -1.799895         1.570389         1.638682
 C        -1.342847         3.002535         1.658277
 C        -0.612554         3.597693         2.936734
 C         0.888062         3.972507         2.314338
 O         1.196841         2.816903         1.473353
 C        -0.145571         2.654755         0.723003
 H         0.979027         0.335661         0.946818
 H        -2.572854         1.604132        -0.705863
 H        -2.170378         0.024559         0.053663
 H        -2.363673         1.164282         2.513096
 H        -1.943776         3.817269         1.262701
 H        -0.902949         4.488496         3.389883
 H        -0.442085         2.967376         3.718966
 H         0.692623         4.978309         1.828186
 H         1.689253         4.028016         3.087626
 H        -0.030188         3.172317        -0.262429
