19
Iteration:  3010
 O         0.203018         0.096649         0.527775
 C        -0.549910         1.270360         0.567921
 C        -1.980411         1.026994         0.221936
 C        -1.675849         1.621905         1.573763
 C        -1.344917         3.125379         1.641196
 C        -0.588194         3.646639         2.883954
 C         0.906847         3.769611         2.509027
 O         1.060699         2.875518         1.369124
 C        -0.217808         2.790313         0.568195
 H         1.003343         0.325139         1.089983
 H        -2.606334         1.621743        -0.508142
 H        -2.073712        -0.134802         0.178232
 H        -1.738870         0.964730         2.375740
 H        -2.157649         3.826259         1.488794
 H        -1.060498         4.579097         3.283482
 H        -0.588430         2.863982         3.591029
 H         1.246774         4.847380         2.250299
 H         1.500436         3.357557         3.379403
 H        -0.196248         3.272285        -0.440919
