19
Iteration:  3986
 O         0.276577         0.202491         0.574071
 C        -0.585872         1.269711         0.637106
 C        -2.046582         1.075895         0.120069
 C        -1.834951         1.620271         1.629041
 C        -1.280143         3.026137         1.599757
 C        -0.554999         3.453828         2.907100
 C         0.844551         3.871166         2.405353
 O         1.131779         2.924759         1.343679
 C        -0.155700         2.706902         0.635532
 H         0.752213         0.166921         1.452643
 H        -2.630579         1.905199        -0.450679
 H        -2.341686         0.030590        -0.027522
 H        -2.043768         1.108620         2.604741
 H        -1.935574         3.774342         1.232110
 H        -1.075350         4.129924         3.559252
 H        -0.314082         2.684806         3.630022
 H         0.906100         5.016624         2.024417
 H         1.675368         3.678172         3.046142
 H        -0.012006         3.274877        -0.332474
