19
Iteration:   989
 O         0.330692         0.262638         0.646267
 C        -0.580490         1.269828         0.711121
 C        -1.931821         1.060825         0.233684
 C        -1.744776         1.670387         1.650137
 C        -1.384201         3.155690         1.617188
 C        -0.626999         3.729181         2.858488
 C         0.864972         3.356231         2.541460
 O         1.042572         2.958124         1.151641
 C        -0.174578         2.695008         0.495979
 H         1.121534         0.823835         0.772709
 H        -2.329647         1.627691        -0.575526
 H        -2.150574        -0.053806         0.197563
 H        -2.051875         1.009163         2.543836
 H        -2.115211         3.849761         1.193379
 H        -0.827857         4.755903         3.035102
 H        -0.977201         3.255297         3.845295
 H         1.535424         4.213232         2.755801
 H         1.098184         2.566261         3.254926
 H        -0.191726         3.272226        -0.456762
