19
Iteration:  2096charge 0 multiplicity 1
 O         0.325681         0.109752         0.514244
 C        -0.556638         1.212842         0.640692
 C        -1.926648         1.186758         0.256562
 C        -1.557591         1.526615         1.752032
 C        -1.363164         3.109620         1.661118
 C        -0.649708         3.898096         2.729368
 C         0.777729         3.253973         2.584335
 O         1.033412         3.157582         1.216997
 C        -0.246869         2.746886         0.549232
 H         1.126838         0.331697         1.106865
 H        -2.286287         1.972012        -0.315747
 H        -2.370305         0.117604         0.133015
 H        -1.697441         0.912770         2.718717
 H        -2.313366         3.570636         1.400665
 H        -0.845341         5.011179         2.536225
 H        -1.107121         3.516850         3.646138
 H         1.641716         3.875766         2.993333
 H         0.743960         2.250554         3.086460
 H        -0.212100         3.049368        -0.458976
