19
Iteration:  3421
 O         0.297715         0.182623         0.516469
 C        -0.617097         1.207438         0.685919
 C        -1.969484         1.104601         0.177853
 C        -1.752152         1.606976         1.621152
 C        -1.333853         3.144840         1.640639
 C        -0.547438         3.529680         2.936313
 C         0.861670         3.824988         2.401293
 O         1.047402         2.884820         1.317345
 C        -0.171331         2.698396         0.596930
 H         0.880459         0.162960         1.326237
 H        -2.245340         1.857559        -0.649187
 H        -2.344076         0.126189         0.058613
 H        -2.176956         0.939797         2.407082
 H        -2.107459         3.820981         1.315650
 H        -1.082190         4.360305         3.332858
 H        -0.617195         2.809258         3.725656
 H         1.115817         4.890647         2.277925
 H         1.646143         3.482438         3.185450
 H        -0.085825         3.160955        -0.412407
