19
Iteration:  3278
 O         0.321422         0.202790         0.501289
 C        -0.566218         1.262657         0.662488
 C        -1.997591         1.141541         0.251504
 C        -1.667789         1.650671         1.615304
 C        -1.364211         3.070150         1.620573
 C        -0.664353         3.602865         2.889903
 C         0.808765         3.707526         2.433138
 O         1.070263         2.835030         1.304472
 C        -0.130554         2.687941         0.638949
 H         1.006703         0.273244         1.209797
 H        -2.361940         1.879788        -0.449110
 H        -2.400053         0.070917        -0.004423
 H        -1.999163         1.180336         2.526040
 H        -2.174767         3.743594         1.379897
 H        -1.050636         4.487808         3.293258
 H        -0.897393         2.957266         3.708366
 H         1.034693         4.708667         2.062642
 H         1.758869         3.488386         3.051221
 H        -0.049323         3.214680        -0.381292
