19
Iteration:  4680
 O         0.312629         0.246651         0.523139
 C        -0.619762         1.265849         0.578994
 C        -2.071004         1.088587         0.169927
 C        -1.794775         1.586965         1.643244
 C        -1.267705         3.044664         1.617398
 C        -0.586290         3.463438         2.959860
 C         0.837692         3.791107         2.441642
 O         1.107346         2.922537         1.315324
 C        -0.090531         2.694274         0.717620
 H         1.194727         0.687052         0.576140
 H        -2.500318         1.719583        -0.608026
 H        -2.307497         0.082719        -0.041193
 H        -2.360762         1.047500         2.600606
 H        -1.957445         3.832109         1.119242
 H        -1.041288         4.301817         3.402162
 H        -0.891661         2.633093         3.577367
 H         0.752920         4.824605         2.052845
 H         1.769850         3.715974         3.138560
 H        -0.116394         3.320778        -0.140899
