19
Iteration:   861
 O         0.357366         0.313192         0.659350
 C        -0.536351         1.401851         0.589072
 C        -2.038300         0.956198         0.341201
 C        -1.653089         1.651303         1.661158
 C        -1.385079         3.167678         1.547703
 C        -0.619304         3.728637         2.713033
 C         0.869532         3.258480         2.623861
 O         1.039365         2.828672         1.214327
 C        -0.217814         2.912406         0.494365
 H         1.022155         0.587077         1.229299
 H        -2.705465         1.361272        -0.493251
 H        -2.317866        -0.153585         0.425283
 H        -1.954081         1.211873         2.706740
 H        -2.282685         3.731908         1.204488
 H        -0.543116         4.814097         2.559907
 H        -1.030824         3.533186         3.688199
 H         1.532740         4.074645         2.811323
 H         0.992808         2.436890         3.375255
 H         0.054807         3.313440        -0.503192
