19
Iteration:   540charge 0 multiplicity 1
 O         0.391330         0.321422         0.486745
 C        -0.586688         1.287390         0.641904
 C        -2.061912         1.104150         0.303600
 C        -1.761641         1.564752         1.733591
 C        -1.384817         3.056994         1.623570
 C        -0.569981         3.801501         2.649673
 C         0.881361         3.404844         2.639770
 O         1.024214         2.880041         1.290278
 C        -0.156080         2.658857         0.592068
 H         1.106529         0.778906         0.804399
 H        -2.652520         1.823695        -0.245671
 H        -2.438065         0.139363         0.036931
 H        -1.978705         1.098849         2.728606
 H        -2.128899         3.676858         1.169226
 H        -0.625100         4.779879         2.278042
 H        -0.933244         3.920778         3.663209
 H         1.519770         4.348634         2.530033
 H         1.205971         2.764000         3.432084
 H         0.101342         2.993964        -0.406033
