19
Iteration:   555
 O         0.424501         0.190078         0.467655
 C        -0.607082         1.172381         0.699901
 C        -2.108869         1.250101         0.310157
 C        -1.647564         1.540417         1.737429
 C        -1.311496         3.030190         1.573356
 C        -0.648903         3.884984         2.708453
 C         0.872030         3.484275         2.635003
 O         1.076250         2.880978         1.261135
 C        -0.244398         2.690544         0.566947
 H         1.282303         0.718696         0.789764
 H        -2.329504         2.134084        -0.402523
 H        -2.530809         0.191994         0.113723
 H        -2.071465         0.953101         2.553614
 H        -2.215504         3.544743         1.262277
 H        -0.700588         5.003670         2.368654
 H        -1.260185         3.693139         3.670872
 H         1.531476         4.238905         2.892613
 H         1.156026         2.641168         3.334683
 H        -0.363635         3.197202        -0.388104
