19
Iteration:  4940
 O         0.213328         0.233333         0.568898
 C        -0.602820         1.348679         0.581642
 C        -2.008052         1.148352         0.176071
 C        -1.692633         1.479415         1.578491
 C        -1.388214         2.959639         1.648235
 C        -0.536372         3.467566         2.918638
 C         0.870926         3.880577         2.434995
 O         1.072566         2.907543         1.348365
 C        -0.118602         2.753412         0.603241
 H         0.908382         0.308691         1.254759
 H        -2.466390         1.880127        -0.499419
 H        -2.298935         0.054453         0.071908
 H        -1.701985         0.685943         2.414579
 H        -2.255459         3.641493         1.540039
 H        -0.941430         4.292350         3.470563
 H        -0.564617         2.618944         3.707884
 H         0.889060         4.914386         2.079420
 H         1.807389         3.688476         2.926499
 H        -0.095083         3.305302        -0.307494
