19
Iteration:  2517charge 0 multiplicity 1
 O         0.440590         0.305739         0.611743
 C        -0.497947         1.335220         0.660100
 C        -1.958895         0.950295         0.358758
 C        -1.677143         1.686585         1.705874
 C        -1.411107         3.245084         1.571517
 C        -0.595192         3.748060         2.772507
 C         0.794730         3.065429         2.579734
 O         0.997455         3.025356         1.145901
 C        -0.306896         2.838067         0.521223
 H         1.272105         0.645350         0.935083
 H        -2.518654         1.415947        -0.520642
 H        -2.121064        -0.094028         0.461380
 H        -2.063071         1.304267         2.600053
 H        -2.150565         3.876131         1.096463
 H        -0.313189         4.802650         2.583822
 H        -1.193142         3.606483         3.754253
 H         1.594798         3.571558         3.053950
 H         0.790993         2.056444         3.006584
 H        -0.327071         3.198599        -0.500177
