19
Iteration:  3001charge 0 multiplicity 1
 O         0.245929         0.052269         0.513671
 C        -0.624267         1.283988         0.557553
 C        -1.970431         1.065082         0.187013
 C        -1.670482         1.585062         1.649874
 C        -1.322887         3.134035         1.671031
 C        -0.624146         3.637022         2.899500
 C         0.841537         3.744925         2.442879
 O         1.083357         2.873734         1.362503
 C        -0.163584         2.807635         0.619279
 H         1.033280         0.463811         0.949341
 H        -2.486028         1.599273        -0.666961
 H        -2.157330        -0.120269         0.222196
 H        -2.070996         1.008913         2.494378
 H        -2.113434         3.833244         1.318405
 H        -0.933255         4.681645         3.174893
 H        -0.731531         3.021501         3.733704
 H         1.148338         4.798209         2.181678
 H         1.699829         3.444509         3.101341
 H        -0.099704         3.447259        -0.220612
