19
Iteration:  4500charge 0 multiplicity 1
 O         0.285966         0.185681         0.485767
 C        -0.580851         1.187248         0.694420
 C        -1.860337         1.243172         0.172962
 C        -1.762755         1.531030         1.683515
 C        -1.351786         3.010999         1.680533
 C        -0.589078         3.508811         2.885994
 C         0.802206         3.897353         2.334857
 O         1.119969         2.894567         1.447323
 C        -0.118568         2.692509         0.622737
 H        -0.039032        -0.208386        -0.376127
 H        -2.415561         2.063670        -0.446772
 H        -2.148249         0.194878         0.019175
 H        -2.510180         1.083865         2.315487
 H        -2.017594         3.825230         1.360967
 H        -1.208860         4.143345         3.549802
 H        -0.476966         2.652937         3.637587
 H         0.627198         4.900208         1.822880
 H         1.439219         3.986190         3.173954
 H        -0.048449         3.311632        -0.242692
