19
Iteration:    86charge 0 multiplicity 1
 O         0.228861         0.124769         0.662679
 C        -0.499721         1.307580         0.689598
 C        -1.845620         1.173607         0.317188
 C        -1.723331         1.640985         1.732594
 C        -1.361205         3.095678         1.581892
 C        -0.573509         3.703570         2.766288
 C         0.825754         3.192334         2.521062
 O         1.013534         3.232327         1.103790
 C        -0.224660         2.747637         0.563723
 H         1.151041         0.266001         0.851263
 H        -2.466894         1.708504        -0.536690
 H        -1.992833         0.055567         0.294872
 H        -2.125439         1.188872         2.623408
 H        -2.125094         3.753173         1.201019
 H        -0.589173         4.826090         2.527046
 H        -1.044889         3.428148         3.764715
 H         1.596539         3.622815         3.107254
 H         0.959142         2.152881         2.975421
 H        -0.266534         3.056179        -0.508968
