19
Iteration:   447
 O         0.379501         0.251682         0.609990
 C        -0.565745         1.278759         0.731241
 C        -1.919463         1.069288         0.287542
 C        -1.653367         1.679902         1.723899
 C        -1.393610         3.108661         1.611962
 C        -0.533496         3.837018         2.650598
 C         0.813846         3.086838         2.578202
 O         0.975924         3.119708         1.163842
 C        -0.248786         2.748263         0.586878
 H         1.220416         0.607610         0.907177
 H        -2.466856         1.600637        -0.542631
 H        -2.327102         0.022589         0.455676
 H        -2.154739         1.153469         2.581599
 H        -2.269980         3.834346         1.315100
 H        -0.598427         4.937777         2.477890
 H        -0.983973         3.742196         3.670269
 H         1.687756         3.516064         3.021707
 H         0.663605         1.965811         2.822633
 H        -0.297285         3.078387        -0.502856
