19
Iteration:  2509charge 0 multiplicity 1
 O         0.462272         0.378092         0.595047
 C        -0.606630         1.287064         0.676562
 C        -1.936700         0.957608         0.386424
 C        -1.712121         1.729112         1.706726
 C        -1.423857         3.196995         1.517183
 C        -0.616191         3.731614         2.745576
 C         0.785358         3.051087         2.645425
 O         1.033913         2.997049         1.072133
 C        -0.198753         2.813692         0.561134
 H         1.225342         0.809380         0.942036
 H        -2.550650         1.472552        -0.316660
 H        -2.122372        -0.023508         0.555682
 H        -2.078306         1.246107         2.621174
 H        -2.215759         3.942660         1.226218
 H        -0.563888         4.852272         2.652453
 H        -1.116356         3.493922         3.744224
 H         1.550802         3.776821         3.029113
 H         0.862049         1.999110         2.983787
 H        -0.269991         3.325178        -0.357258
