19
Iteration:  3066charge 0 multiplicity 1
 O         0.348183         0.223843         0.582925
 C        -0.663706         1.164738         0.697332
 C        -1.974630         1.129494         0.183677
 C        -1.747957         1.608332         1.634679
 C        -1.316566         3.111028         1.600028
 C        -0.573656         3.538448         2.913196
 C         0.915389         3.750368         2.409007
 O         1.012028         2.869016         1.322784
 C        -0.160663         2.745907         0.614370
 H         1.167248         0.695948         0.580847
 H        -2.337702         1.837556        -0.609762
 H        -2.438162         0.055860        -0.060412
 H        -2.402825         1.047327         2.350959
 H        -2.099082         3.801549         1.288916
 H        -1.048066         4.387898         3.474032
 H        -0.658939         2.747040         3.569432
 H         0.988050         4.859414         2.161357
 H         1.669998         3.457536         3.182020
 H        -0.190821         3.135020        -0.417669
