19
Iteration:  2271charge 0 multiplicity 1
 O         0.283318         0.053641         0.500626
 C        -0.540652         1.272272         0.629157
 C        -2.031767         1.047203         0.507036
 C        -1.568784         1.606231         1.781377
 C        -1.367844         3.094935         1.470740
 C        -0.649152         3.718157         2.671200
 C         0.693606         3.136205         2.600006
 O         1.048557         3.335025         1.238072
 C        -0.047005         2.899219         0.530185
 H         1.164622         0.322828         0.830793
 H        -2.612679         1.669073        -0.307873
 H        -2.223439         0.024057         0.342482
 H        -1.650975         1.229626         2.768057
 H        -2.139648         3.730629         1.083449
 H        -0.631749         4.815636         2.637118
 H        -1.149375         3.503722         3.568007
 H         1.431249         3.772709         3.171702
 H         0.801304         2.097955         2.917509
 H        -0.011286         3.429590        -0.477897
