19
Iteration:  2490charge 0 multiplicity 1
 O         0.493446         0.512587         0.615937
 C        -0.631521         1.314260         0.666704
 C        -2.124794         1.009976         0.421981
 C        -1.750967         1.649274         1.721881
 C        -1.334538         3.117447         1.485381
 C        -0.609475         3.650770         2.741002
 C         0.835273         3.156007         2.551448
 O         1.111142         2.985813         1.237041
 C        -0.230003         2.742914         0.467851
 H         1.282828         0.996557         0.725143
 H        -2.664138         1.499195        -0.400446
 H        -2.328582        -0.194253         0.539105
 H        -2.039325         1.252822         2.766152
 H        -2.051269         3.839308         1.008408
 H        -0.649880         4.738524         2.686844
 H        -1.133509         3.245306         3.542514
 H         1.550440         3.898279         3.098787
 H         0.778796         2.145904         3.024387
 H        -0.111152         3.024006        -0.681329
