19
Iteration:  2362
 O         0.382179         0.266526         0.587973
 C        -0.625658         1.276604         0.567640
 C        -2.035574         1.060587         0.329614
 C        -1.735555         1.545828         1.664939
 C        -1.316055         3.120194         1.576154
 C        -0.652391         3.739864         2.779456
 C         0.917795         3.422590         2.587627
 O         1.075382         2.944084         1.207025
 C        -0.223055         2.803716         0.575493
 H         1.114657         0.619761         1.139739
 H        -2.587701         1.534156        -0.434355
 H        -2.290348        -0.074634         0.428348
 H        -1.978791         0.764526         2.457380
 H        -2.140033         3.639075         1.101241
 H        -0.716173         4.868040         2.823078
 H        -1.129332         3.401502         3.726904
 H         1.554737         4.287276         2.662615
 H         1.320279         2.678339         3.346103
 H        -0.270899         3.378584        -0.315181
