19
Iteration:  2001
 O         0.423312         0.335297         0.629754
 C        -0.581883         1.337358         0.632839
 C        -2.091112         1.048805         0.349638
 C        -1.642735         1.576338         1.723256
 C        -1.335055         3.060889         1.583596
 C        -0.699839         3.775807         2.706474
 C         0.807866         3.132091         2.599119
 O         1.070886         3.080760         1.177484
 C        -0.181603         2.794934         0.512946
 H         1.253969         0.709915         0.817489
 H        -2.721647         1.739977        -0.205327
 H        -2.292955        -0.080160         0.213271
 H        -1.739842         1.030421         2.766271
 H        -2.253215         3.661961         1.248450
 H        -0.537971         4.837042         2.458244
 H        -1.258742         3.714676         3.638700
 H         1.572331         3.768491         3.061282
 H         0.949269         2.119497         2.960195
 H        -0.034462         3.231191        -0.538092
