19
Iteration:  1597charge 0 multiplicity 1
 O         0.501668         0.375159         0.643783
 C        -0.582577         1.203236         0.678663
 C        -2.043151         1.077916         0.337765
 C        -1.789605         1.648415         1.683350
 C        -1.370656         3.141464         1.556113
 C        -0.606548         3.783044         2.756842
 C         0.861957         3.252193         2.577726
 O         1.043739         2.986984         1.141565
 C        -0.240265         2.686651         0.561158
 H         1.360080         0.842507         0.541558
 H        -2.457753         1.631416        -0.496022
 H        -2.469687        -0.011875         0.485458
 H        -2.054668         1.100482         2.648273
 H        -2.160142         3.708073         1.052162
 H        -0.765395         4.900881         2.811986
 H        -1.172342         3.291135         3.637548
 H         1.665904         3.935687         2.942259
 H         0.881494         2.273383         3.028569
 H        -0.149716         3.122364        -0.405149
