19
Iteration:    71
 O         0.330286         0.270366         0.701434
 C        -0.601649         1.321409         0.796597
 C        -2.025252         1.106732         0.309388
 C        -1.672835         1.640257         1.692824
 C        -1.339488         3.113376         1.537297
 C        -0.636172         3.654815         2.743628
 C         0.830759         3.170231         2.530852
 O         1.085893         3.105475         1.097800
 C        -0.173241         2.762441         0.531426
 H         1.287901         0.724299         0.838613
 H        -2.384660         1.847063        -0.404198
 H        -2.390226         0.116375         0.168472
 H        -2.073611         1.159526         2.627571
 H        -2.201216         3.793058         1.156898
 H        -0.719595         4.721619         2.906232
 H        -0.976660         3.188157         3.672163
 H         1.604037         3.965249         2.773175
 H         0.940795         2.106850         2.872100
 H        -0.180474         3.236345        -0.470328
