19
Iteration:  3290charge 0 multiplicity 1
 O         0.282256         0.139804         0.583607
 C        -0.527804         1.281575         0.577416
 C        -2.102345         1.197982         0.218355
 C        -1.646412         1.489738         1.644657
 C        -1.346024         3.113067         1.679268
 C        -0.703382         3.622064         2.954554
 C         0.850752         3.747637         2.454726
 O         1.126945         2.852386         1.280353
 C        -0.093596         2.746868         0.514678
 H         0.997324         0.352707         1.169786
 H        -2.588222         1.896364        -0.423631
 H        -2.235234         0.047602         0.018294
 H        -2.084707         0.866963         2.445245
 H        -2.174762         3.678619         1.227382
 H        -1.062613         4.570295         3.105936
 H        -0.719784         2.875733         3.736630
 H         0.858578         4.755964         2.112840
 H         1.451425         3.546693         3.414753
 H        -0.009617         3.237419        -0.521895
