19
Iteration:   723
 O         0.340180         0.240936         0.660105
 C        -0.583641         1.350146         0.751908
 C        -1.948562         1.115663         0.348776
 C        -1.719817         1.695314         1.768749
 C        -1.359631         3.156331         1.472653
 C        -0.669847         3.622800         2.734812
 C         0.808993         3.156207         2.528716
 O         1.089236         3.086890         1.141371
 C        -0.179628         2.764170         0.527448
 H         1.181480         0.581745         0.876320
 H        -2.331682         1.820892        -0.455157
 H        -2.123931         0.022989         0.159567
 H        -2.001106         1.282458         2.787625
 H        -2.153468         3.676291         0.847649
 H        -0.764707         4.766797         2.952671
 H        -0.985974         3.052498         3.601935
 H         1.581647         3.880933         2.943999
 H         0.902650         2.161361         2.991344
 H        -0.200546         3.285943        -0.494210
