19
Iteration:  1402charge 0 multiplicity 1
 O         0.375154         0.196132         0.459082
 C        -0.635995         1.228646         0.624260
 C        -1.996764         0.906425         0.341425
 C        -1.750586         1.673643         1.662173
 C        -1.385931         3.171291         1.621983
 C        -0.584631         3.823036         2.761496
 C         0.829679         3.416750         2.633554
 O         1.098934         3.028320         1.210711
 C        -0.149870         2.721481         0.584508
 H         1.023729         0.411654         1.135187
 H        -2.440491         1.319538        -0.528169
 H        -2.321266        -0.142064         0.536185
 H        -2.347697         1.259486         2.492258
 H        -2.018409         4.016001         1.203107
 H        -0.718609         4.899076         2.823844
 H        -0.853907         3.440112         3.806446
 H         1.446504         4.256325         2.867453
 H         1.133252         2.588417         3.306806
 H        -0.246115         3.163339        -0.489067
