19
Iteration:   761charge 0 multiplicity 1
 O         0.237661        -0.020089         0.512006
 C        -0.541327         1.168841         0.613505
 C        -1.964874         1.070843         0.293954
 C        -1.693850         1.618257         1.685757
 C        -1.316723         3.098888         1.529046
 C        -0.580509         3.866439         2.743543
 C         0.833827         3.294747         2.647544
 O         1.035487         3.265577         1.228309
 C        -0.149207         2.848065         0.625216
 H         0.775489         0.105890         1.251717
 H        -2.481398         1.637536        -0.462211
 H        -2.200516         0.060451         0.305352
 H        -1.796189         1.087473         2.587593
 H        -2.277408         3.576024         1.283203
 H        -0.470175         4.864406         2.494625
 H        -1.037982         3.750536         3.755325
 H         1.612280         3.860535         3.105694
 H         0.920802         2.267260         3.086826
 H        -0.313572         3.372235        -0.291108
