19
Iteration:  1527
 O         0.365346         0.195597         0.617947
 C        -0.533072         1.269194         0.592948
 C        -2.045686         1.145528         0.436030
 C        -1.445115         1.610228         1.754866
 C        -1.353557         3.097518         1.467673
 C        -0.711202         3.737610         2.682417
 C         0.773642         3.120749         2.635198
 O         0.993243         3.187509         1.192071
 C        -0.212798         2.778709         0.485259
 H         1.111752         0.350055         1.338843
 H        -2.378290         2.001828        -0.275633
 H        -2.580459         0.259252         0.522580
 H        -1.497820         0.961688         2.563697
 H        -2.228963         3.598691         1.134703
 H        -0.561932         4.793431         2.517844
 H        -1.248421         3.622504         3.558549
 H         1.529556         3.802304         3.064694
 H         0.716401         2.213706         3.148708
 H        -0.114914         3.255649        -0.560369
