19
Iteration:   106
 O         0.242658        -0.006065         0.566779
 C        -0.538922         1.155718         0.770108
 C        -2.052046         0.988720         0.238581
 C        -1.645894         1.604344         1.642303
 C        -1.337111         3.149817         1.633289
 C        -0.536068         3.842037         2.755479
 C         0.865227         3.189205         2.567951
 O         0.983411         3.388164         1.160286
 C        -0.110081         2.879180         0.578366
 H         1.027536        -0.024561         1.279816
 H        -2.380243         1.738929        -0.587857
 H        -2.497231        -0.002736         0.151943
 H        -1.992492         1.152920         2.597180
 H        -2.254126         3.730543         1.271839
 H        -0.448225         4.948262         2.551720
 H        -0.999374         3.657705         3.768915
 H         1.673891         3.688467         3.134760
 H         0.953975         2.149445         3.039596
 H        -0.293471         3.246425        -0.446746
