19
Iteration:  1448
 O         0.426574         0.360920         0.641867
 C        -0.663400         1.222597         0.587582
 C        -2.120217         1.152795         0.310542
 C        -1.566286         1.579978         1.695918
 C        -1.317470         3.087533         1.545284
 C        -0.702339         3.729246         2.744198
 C         0.855756         3.437791         2.582042
 O         1.102722         2.871385         1.198252
 C        -0.218740         2.688581         0.559711
 H         1.160842         0.813754         1.024116
 H        -2.649649         1.832450        -0.396980
 H        -2.563509         0.095712         0.269093
 H        -1.701863         0.961106         2.662479
 H        -2.291557         3.532997         1.273873
 H        -0.803680         4.775538         2.830410
 H        -1.155900         3.296901         3.649981
 H         1.437583         4.341288         2.709193
 H         1.126762         2.759523         3.355762
 H        -0.080101         3.187378        -0.495196
