19
Iteration:  3951
 O         0.307377         0.170040         0.631653
 C        -0.634837         1.258444         0.587431
 C        -1.960277         1.137955         0.107978
 C        -1.681055         1.605229         1.598001
 C        -1.344374         3.061590         1.691483
 C        -0.573495         3.531712         2.922897
 C         0.853970         3.768374         2.330777
 O         1.060560         2.818518         1.336357
 C        -0.213013         2.803301         0.662559
 H         1.018893         0.461140         1.274796
 H        -2.590471         1.986362        -0.328771
 H        -2.451602         0.171495        -0.065287
 H        -1.774938         1.089249         2.504268
 H        -2.203995         3.620910         1.318015
 H        -1.075952         4.421109         3.324895
 H        -0.428677         2.699609         3.548959
 H         1.128984         4.836232         1.852367
 H         1.504413         3.587187         3.219548
 H        -0.226741         3.397929        -0.316731
