19
Iteration:   423charge 0 multiplicity 1
 O         0.382680         0.253617         0.701529
 C        -0.615724         1.277874         0.597196
 C        -2.050969         1.018187         0.278180
 C        -1.726390         1.603942         1.633857
 C        -1.376725         3.143219         1.629112
 C        -0.553615         3.770610         2.813878
 C         0.891183         3.271261         2.582825
 O         1.055152         3.005952         1.160381
 C        -0.247459         2.798068         0.500028
 H         1.148955         0.697646         1.077934
 H        -2.510376         1.625335        -0.623752
 H        -2.321596        -0.032482         0.172750
 H        -1.915677         0.941031         2.503683
 H        -2.084962         3.920018         1.209309
 H        -0.696457         4.922064         2.776397
 H        -0.874635         3.591931         3.912231
 H         1.522767         4.111258         2.763090
 H         1.289203         2.337285         3.154946
 H        -0.257982         3.232818        -0.526527
