19
Iteration:  3674charge 0 multiplicity 1
 O         0.301285         0.249583         0.654125
 C        -0.561789         1.323804         0.549168
 C        -2.011664         1.042065         0.213143
 C        -1.685083         1.655290         1.628295
 C        -1.345200         3.118578         1.571980
 C        -0.561564         3.421612         2.858855
 C         0.867213         3.794301         2.452380
 O         1.031568         2.765789         1.358695
 C        -0.211877         2.823119         0.569781
 H         0.924733         0.421592         1.390888
 H        -2.383730         1.645208        -0.628635
 H        -2.386228         0.044653        -0.038244
 H        -2.120555         1.056773         2.393738
 H        -2.057118         3.869059         1.342795
 H        -1.017288         4.201576         3.469530
 H        -0.546125         2.479981         3.468100
 H         0.829565         4.798029         1.994457
 H         1.762613         3.725537         3.209914
 H        -0.062851         3.458210        -0.296272
