19
Iteration:  1886charge 0 multiplicity 1
 O         0.304411         0.271688         0.687937
 C        -0.531206         1.317664         0.694972
 C        -1.970967         1.060108         0.192381
 C        -1.725573         1.548013         1.649869
 C        -1.348854         3.132381         1.582004
 C        -0.539414         3.674862         2.890710
 C         0.890567         3.458409         2.519470
 O         0.975993         2.955228         1.149770
 C        -0.242174         2.770113         0.562026
 H         1.171450         0.646947         0.933561
 H        -2.416485         1.587991        -0.653479
 H        -2.137840        -0.014513        -0.039264
 H        -1.997633         0.910600         2.509205
 H        -2.237429         3.680694         1.213282
 H        -0.679802         4.860430         2.943863
 H        -0.981687         3.121657         3.811317
 H         1.481583         4.356047         2.702880
 H         1.367996         2.675159         3.164178
 H        -0.299133         3.106111        -0.452849
