19
Iteration:  2506charge 0 multiplicity 1
 O         0.460560         0.403997         0.589590
 C        -0.622534         1.288628         0.686132
 C        -1.944946         0.968609         0.403110
 C        -1.734613         1.728095         1.709331
 C        -1.405445         3.172090         1.507716
 C        -0.621161         3.721047         2.721330
 C         0.777866         3.062522         2.651940
 O         1.059141         2.996982         1.075933
 C        -0.188849         2.791548         0.552826
 H         1.232139         0.957877         0.957472
 H        -2.590190         1.483555        -0.356950
 H        -2.199958        -0.057067         0.596182
 H        -2.030929         1.251836         2.583577
 H        -2.196835         3.870572         1.277480
 H        -0.637553         4.835590         2.725783
 H        -1.076626         3.447509         3.760654
 H         1.520322         3.713153         2.982949
 H         0.891627         2.044522         3.021830
 H        -0.197540         3.349536        -0.362707
