19
Iteration:  3002
 O         0.242779         0.049693         0.514819
 C        -0.618833         1.283243         0.557612
 C        -1.969451         1.059258         0.189096
 C        -1.668644         1.592243         1.639723
 C        -1.323688         3.137896         1.672992
 C        -0.626277         3.639572         2.893913
 C         0.843851         3.748925         2.449087
 O         1.084996         2.874061         1.367153
 C        -0.172696         2.808086         0.611008
 H         0.985628         0.473800         0.952080
 H        -2.487789         1.591249        -0.639327
 H        -2.121119        -0.113907         0.218362
 H        -2.047918         0.970360         2.506669
 H        -2.125519         3.856005         1.358830
 H        -0.934155         4.681273         3.171786
 H        -0.697198         2.975786         3.721100
 H         1.178772         4.771805         2.212856
 H         1.701436         3.441462         3.097944
 H        -0.121377         3.429223        -0.240747
