19
Iteration:  3269
 O         0.338134         0.233276         0.466022
 C        -0.612369         1.220649         0.684682
 C        -1.932172         1.130634         0.205341
 C        -1.757980         1.625163         1.689813
 C        -1.313168         3.098097         1.556320
 C        -0.598690         3.555820         2.853236
 C         0.851314         3.737308         2.416037
 O         1.040953         2.837184         1.388350
 C        -0.205386         2.726158         0.627238
 H         1.035610         0.302712         1.164878
 H        -2.315003         1.785335        -0.530358
 H        -2.454947         0.137308         0.393849
 H        -2.016958         1.065990         2.604266
 H        -2.050319         3.776928         1.056198
 H        -0.896019         4.541588         3.137739
 H        -0.648225         2.859412         3.727421
 H         0.979725         4.754861         2.103987
 H         1.474385         3.392743         3.272118
 H        -0.202159         3.221481        -0.361646
