19
Iteration:  4766charge 0 multiplicity 1
 O         0.234307         0.136620         0.309691
 C        -0.575210         1.244302         0.584776
 C        -1.986876         1.175526         0.203454
 C        -1.678883         1.485410         1.687052
 C        -1.295401         3.013124         1.641618
 C        -0.598478         3.645792         2.923620
 C         0.821324         3.952957         2.427912
 O         1.081674         2.817409         1.494362
 C        -0.168716         2.687725         0.671857
 H         1.155951         0.205697         0.663410
 H        -2.495897         2.037424        -0.238566
 H        -2.327717         0.206416         0.059152
 H        -2.054968         0.919192         2.670804
 H        -2.085527         3.582009         1.235196
 H        -1.165540         4.452483         3.280170
 H        -0.582751         2.757765         3.564873
 H         0.904886         4.953482         1.956681
 H         1.574905         3.915193         3.150823
 H        -0.042853         3.334076        -0.257788
