19
Iteration:   728charge 0 multiplicity 1
 O         0.300108         0.233588         0.624063
 C        -0.599686         1.302817         0.786862
 C        -1.982924         1.127259         0.344496
 C        -1.686639         1.684055         1.722743
 C        -1.333654         3.151837         1.463092
 C        -0.683268         3.630480         2.729423
 C         0.805464         3.180458         2.549506
 O         1.088690         3.171837         1.142348
 C        -0.109496         2.715209         0.544807
 H         1.237540         0.565446         0.993126
 H        -2.431904         1.732379        -0.421749
 H        -2.265107         0.108877         0.294652
 H        -1.873497         1.251930         2.663677
 H        -2.261369         3.513028         1.013426
 H        -0.664007         4.638477         2.914729
 H        -1.023259         3.193324         3.703776
 H         1.552025         3.826969         2.990165
 H         0.862667         2.148101         2.955979
 H        -0.121943         3.138062        -0.433180
