19
Iteration:  1067charge 0 multiplicity 1
 O         0.273218         0.118587         0.554646
 C        -0.449823         1.330501         0.544149
 C        -1.936513         1.026838         0.432941
 C        -1.538913         1.677952         1.728994
 C        -1.354968         3.171604         1.518440
 C        -0.650171         3.819860         2.778336
 C         0.748725         3.121960         2.616444
 O         0.972898         3.126893         1.218286
 C        -0.168513         2.809926         0.467485
 H         0.921947         0.262900         1.220376
 H        -2.425349         1.650353        -0.239896
 H        -2.346529         0.051004         0.486015
 H        -1.633435         1.195323         2.713356
 H        -2.236401         3.794566         1.222282
 H        -0.573520         4.813298         2.449224
 H        -1.364136         3.659061         3.611450
 H         1.389357         3.776152         3.180795
 H         0.681246         2.172635         3.096474
 H         0.002597         3.295818        -0.523829
