19
Iteration:  4398charge 0 multiplicity 1
 O         0.378418         0.248335         0.529123
 C        -0.629226         1.229133         0.588735
 C        -2.087285         1.127598         0.190830
 C        -1.800531         1.478131         1.617036
 C        -1.286408         3.066576         1.666270
 C        -0.614858         3.593073         2.874475
 C         0.913682         3.752863         2.421825
 O         1.105560         2.845738         1.372323
 C        -0.215365         2.724216         0.650503
 H         1.206299         0.759753         0.500267
 H        -2.487387         1.867402        -0.438690
 H        -2.450834         0.130617        -0.027720
 H        -1.950580         1.014366         2.570261
 H        -2.018348         3.800451         1.425394
 H        -1.099732         4.638013         3.091505
 H        -0.781362         2.877600         3.708090
 H         1.079754         4.840365         2.206244
 H         1.572076         3.698277         3.296967
 H        -0.023009         3.293320        -0.237103
