19
Iteration:  2958
 O         0.338147         0.216812         0.438968
 C        -0.551768         1.207366         0.627471
 C        -2.102007         1.199263         0.178855
 C        -1.750913         1.573642         1.741047
 C        -1.364340         3.015141         1.575187
 C        -0.561935         3.591878         2.839866
 C         0.849974         3.882513         2.340048
 O         1.047772         2.777556         1.485534
 C        -0.109273         2.675321         0.720695
 H         1.076674         0.387873         0.985515
 H        -2.422983         2.057036        -0.454840
 H        -2.627198         0.164250        -0.078924
 H        -2.244877         1.040416         2.540332
 H        -2.120489         3.694681         1.119916
 H        -0.934378         4.473496         3.449389
 H        -0.346682         2.691843         3.326741
 H         1.061778         4.782736         1.790800
 H         1.637038         4.012967         3.132142
 H        -0.021332         3.129671        -0.242640
