19
Iteration:   133charge 0 multiplicity 1
 O         0.231671         0.110601         0.564136
 C        -0.520456         1.282778         0.586485
 C        -2.033708         1.105016         0.393491
 C        -1.677800         1.556102         1.686213
 C        -1.326836         3.054279         1.577670
 C        -0.626309         3.757228         2.759958
 C         0.867487         3.358143         2.625113
 O         1.085454         3.259974         1.163842
 C        -0.097245         2.702349         0.493715
 H         0.357620        -0.139878         1.587142
 H        -2.545554         1.787122        -0.223415
 H        -2.377814         0.065626         0.266213
 H        -1.900064         0.967150         2.582801
 H        -2.134785         3.590482         1.169666
 H        -0.743059         4.842753         2.712627
 H        -1.013097         3.358421         3.687428
 H         1.507674         4.191030         2.986641
 H         1.128998         2.505116         3.197172
 H        -0.220405         3.218578        -0.463746
