19
Iteration:  2408charge 0 multiplicity 1
 O         0.295540         0.080508         0.506113
 C        -0.549738         1.186882         0.640835
 C        -2.034558         1.144452         0.361822
 C        -1.631352         1.581428         1.751675
 C        -1.328382         3.018078         1.569005
 C        -0.642270         3.745056         2.741111
 C         0.784972         3.304893         2.603663
 O         1.044501         3.338889         1.152897
 C        -0.056658         2.741215         0.585084
 H         1.068018         0.155910         1.036180
 H        -2.536617         1.812943        -0.248302
 H        -2.370132         0.096877         0.269277
 H        -2.280978         1.422839         2.648215
 H        -2.130458         3.586652         1.052853
 H        -0.774166         4.856174         2.778712
 H        -1.173717         3.408587         3.741735
 H         1.452040         4.032313         3.027942
 H         1.093849         2.310572         3.126264
 H        -0.138265         3.047381        -0.391215
