19
Iteration:  1632
 O         0.285733         0.212714         0.706828
 C        -0.515142         1.369081         0.596907
 C        -1.962299         1.032543         0.339871
 C        -1.674978         1.600806         1.649357
 C        -1.346583         3.023778         1.588525
 C        -0.580961         3.751982         2.720093
 C         0.881544         3.251674         2.585510
 O         0.985815         3.153025         1.144317
 C        -0.226853         2.788622         0.490203
 H         0.820202         0.328922         1.470263
 H        -2.579808         1.601773        -0.378380
 H        -2.102802         0.016618         0.275162
 H        -1.643150         0.991961         2.490940
 H        -2.255317         3.653759         1.295472
 H        -0.638253         4.878827         2.746360
 H        -1.091474         3.369675         3.728612
 H         1.594749         3.932801         2.990190
 H         1.004566         2.364428         3.186305
 H        -0.201748         3.293547        -0.444057
