19
Iteration:  3534charge 0 multiplicity 1
 O         0.388362         0.190233         0.454462
 C        -0.610131         1.228228         0.619574
 C        -2.008494         1.201022         0.232513
 C        -1.824011         1.658910         1.628842
 C        -1.364282         3.044595         1.671342
 C        -0.596402         3.573919         2.863045
 C         0.816862         3.899007         2.397167
 O         1.109148         2.714939         1.436549
 C        -0.142443         2.644142         0.657523
 H         1.290207         0.460711         0.684427
 H        -2.388167         1.763964        -0.639193
 H        -2.320525         0.100964         0.021605
 H        -2.185693         1.137176         2.481745
 H        -2.145393         3.665565         1.144913
 H        -1.081983         4.412847         3.370252
 H        -0.617762         2.977833         3.766184
 H         0.895270         4.933270         1.856963
 H         1.612309         3.867418         3.155094
 H        -0.120022         3.283461        -0.300073
