19
Iteration:   222
 O         0.340140         0.233891         0.559412
 C        -0.542844         1.333730         0.642804
 C        -2.035535         1.140340         0.302612
 C        -1.683615         1.625004         1.662581
 C        -1.343727         3.105919         1.593902
 C        -0.613769         3.682399         2.854144
 C         0.861424         3.572201         2.399071
 O         0.986124         2.716721         1.336880
 C        -0.184216         2.766296         0.535567
 H         0.982046         0.368682         1.182752
 H        -2.635340         1.682870        -0.373043
 H        -2.094724         0.111957         0.210252
 H        -1.876815         1.140868         2.690960
 H        -1.982333         3.817534         1.159876
 H        -0.911181         4.727864         2.891362
 H        -0.832186         3.186612         3.797024
 H         1.165270         4.579388         2.136617
 H         1.553540         3.234032         3.090477
 H         0.064470         3.317326        -0.382929
