19
Iteration:  4863charge 0 multiplicity 1
 O         0.382207         0.235858         0.598320
 C        -0.616020         1.300513         0.641815
 C        -1.992482         1.128798         0.157776
 C        -1.749370         1.597480         1.591736
 C        -1.364821         3.023395         1.664431
 C        -0.583260         3.495157         2.938414
 C         0.907062         3.657348         2.462214
 O         1.024412         2.944533         1.251273
 C        -0.227073         2.740172         0.588837
 H         1.181676         0.640261         0.963203
 H        -2.431837         1.885354        -0.565134
 H        -2.470904         0.166944         0.203922
 H        -2.136803         1.040122         2.535911
 H        -2.063521         3.827806         1.471764
 H        -0.864977         4.448922         3.344310
 H        -0.644702         2.650186         3.733777
 H         1.215753         4.718062         2.062717
 H         1.646208         3.363087         3.167466
 H        -0.276496         3.151553        -0.423252
