19
Iteration:  2996
 O         0.266284         0.095215         0.512048
 C        -0.620438         1.274687         0.571435
 C        -2.002060         1.081009         0.171500
 C        -1.681844         1.566496         1.678532
 C        -1.318724         3.092155         1.648105
 C        -0.605616         3.643106         2.922851
 C         0.853396         3.738482         2.420101
 O         1.066898         2.867076         1.332241
 C        -0.119117         2.791911         0.669562
 H         1.153294         0.301173         0.865948
 H        -2.436815         1.605748        -0.660393
 H        -2.334136         0.119902         0.220350
 H        -2.213418         1.119133         2.526436
 H        -2.055342         3.698672         1.111880
 H        -0.947391         4.634367         3.168860
 H        -0.913396         3.117440         3.929106
 H         0.919515         4.812941         2.030611
 H         1.586465         3.501892         3.182824
 H        -0.006385         3.523778        -0.236023
