19
Iteration:  2495charge 0 multiplicity 1
 O         0.465537         0.504025         0.601580
 C        -0.591623         1.322520         0.689248
 C        -2.095685         0.998541         0.432806
 C        -1.783998         1.667735         1.721311
 C        -1.318094         3.109930         1.514074
 C        -0.622337         3.662080         2.697235
 C         0.791470         3.139225         2.582906
 O         1.129866         2.994696         1.193802
 C        -0.223895         2.739802         0.461422
 H         1.241113         1.162716         0.787314
 H        -2.582506         1.400331        -0.482703
 H        -2.349866        -0.017748         0.598234
 H        -1.974041         1.273872         2.677524
 H        -2.114727         3.729033         1.117140
 H        -0.653643         4.762618         2.774685
 H        -1.082681         3.184022         3.637652
 H         1.568120         3.701444         3.015065
 H         0.800915         2.184680         3.128613
 H        -0.094857         3.069306        -0.539175
