19
Iteration:   301charge 0 multiplicity 1
 O         0.203640        -0.048823         0.446619
 C        -0.530010         1.161931         0.690658
 C        -1.995661         1.324426         0.165114
 C        -1.763312         1.582855         1.628800
 C        -1.267662         3.072552         1.694489
 C        -0.459120         3.596026         2.925927
 C         0.755363         4.031228         2.265955
 O         0.991169         2.865292         1.457024
 C        -0.069543         2.614785         0.654821
 H         0.906646        -0.107075         1.116634
 H        -2.365258         2.162076        -0.458147
 H        -2.458707         0.305198        -0.061020
 H        -2.107375         0.937230         2.400774
 H        -2.062071         3.844330         1.352666
 H        -1.062519         4.361443         3.490257
 H        -0.257973         2.759812         3.668762
 H         0.647932         4.972599         1.797149
 H         1.661710         4.048153         2.914967
 H         0.086744         3.130923        -0.353426
