19
Iteration:  3931charge 0 multiplicity 1
 O         0.304296         0.265886         0.547407
 C        -0.620863         1.267480         0.680997
 C        -2.015893         1.172981         0.224426
 C        -1.785067         1.517146         1.612502
 C        -1.336223         3.040548         1.630307
 C        -0.534390         3.561662         2.868594
 C         0.871033         3.790770         2.454617
 O         1.051434         2.859552         1.354605
 C        -0.163393         2.670583         0.620482
 H         1.263985         0.432297         0.704974
 H        -2.456740         1.722211        -0.722084
 H        -2.267458         0.111274         0.058348
 H        -2.342415         0.931296         2.337859
 H        -2.070718         3.613775         1.143588
 H        -0.950891         4.531067         3.189633
 H        -0.493559         2.877502         3.706990
 H         1.061472         4.847760         2.110534
 H         1.757772         3.663399         2.989771
 H        -0.029856         3.100910        -0.413497
