19
Iteration:   992
 O         0.327873         0.251544         0.630326
 C        -0.572516         1.229902         0.709467
 C        -1.923170         1.036658         0.241797
 C        -1.767989         1.674018         1.615312
 C        -1.384642         3.180836         1.648212
 C        -0.640528         3.725842         2.864013
 C         0.890931         3.361020         2.518917
 O         1.029203         2.970482         1.167283
 C        -0.168876         2.710049         0.538124
 H         1.202762         0.844654         0.677892
 H        -2.278847         1.614541        -0.525006
 H        -2.151699        -0.003091         0.230281
 H        -2.126571         1.050723         2.460580
 H        -2.125112         3.845700         1.138361
 H        -0.702054         4.822488         2.949340
 H        -0.967120         3.287662         3.790825
 H         1.575520         4.176551         2.692831
 H         1.045635         2.594024         3.300814
 H        -0.236822         3.290580        -0.475913
