19
Iteration:  4208
 O         0.324297         0.137569         0.593405
 C        -0.615219         1.209892         0.590272
 C        -2.032844         1.098829         0.166616
 C        -1.756743         1.593509         1.650780
 C        -1.304646         3.033646         1.643075
 C        -0.587512         3.530212         2.894861
 C         0.865184         3.816928         2.482218
 O         1.133096         2.971441         1.366196
 C        -0.158041         2.810391         0.602451
 H         0.241675        -0.212360        -0.336311
 H        -2.524713         1.758681        -0.588116
 H        -2.454843         0.112709         0.156677
 H        -2.109422         0.986591         2.437330
 H        -2.035682         3.775721         1.372169
 H        -1.094507         4.402895         3.299672
 H        -0.673465         2.617460         3.497097
 H         1.071113         4.869507         2.169729
 H         1.610552         3.590076         3.280543
 H        -0.112957         3.330201        -0.362164
