19
Iteration:  4707
 O         0.285209         0.147906         0.331654
 C        -0.560511         1.230061         0.724514
 C        -1.986155         1.210436         0.162985
 C        -1.706216         1.599266         1.658240
 C        -1.337248         3.018209         1.718762
 C        -0.547299         3.572081         2.864027
 C         0.774293         3.878416         2.406685
 O         1.044174         2.872516         1.416923
 C        -0.108628         2.670673         0.674531
 H         1.042317         0.191592         0.967966
 H        -2.435674         1.795751        -0.671030
 H        -2.415307         0.135375         0.146851
 H        -2.061226         0.963123         2.331946
 H        -2.208404         3.621229         1.416685
 H        -1.157167         4.325762         3.482841
 H        -0.667320         2.687327         3.547565
 H         0.961150         4.869937         1.920904
 H         1.466264         3.718300         3.259486
 H         0.018299         3.307651        -0.265539
