19
Iteration:   771charge 0 multiplicity 1
 O         0.164688         0.032263         0.498401
 C        -0.520211         1.226810         0.661275
 C        -1.917506         1.052424         0.235724
 C        -1.572893         1.578976         1.660434
 C        -1.387913         3.098536         1.655158
 C        -0.599906         3.904614         2.735637
 C         0.812457         3.334104         2.636233
 O         1.068149         3.166743         1.204150
 C        -0.182049         2.834167         0.642074
 H         0.843485        -0.155943         1.173675
 H        -2.344457         1.608286        -0.494142
 H        -2.290275         0.098602         0.354703
 H        -1.781909         0.991882         2.521117
 H        -2.126718         3.812186         1.257155
 H        -0.681062         4.869129         2.432384
 H        -1.133036         3.794148         3.698884
 H         1.569914         4.022329         3.019267
 H         0.918452         2.328889         3.097595
 H        -0.135164         3.193372        -0.392444
