19
Iteration:  3796charge 0 multiplicity 1
 O         0.278143         0.185386         0.477348
 C        -0.572758         1.227234         0.610250
 C        -2.057181         1.128689         0.203169
 C        -1.756715         1.615399         1.611422
 C        -1.279157         3.032743         1.630405
 C        -0.597833         3.529409         2.903505
 C         0.803952         3.866144         2.389673
 O         1.122260         2.795807         1.422178
 C        -0.107975         2.751154         0.635760
 H         1.054133         0.449971         1.027677
 H        -2.437056         1.667168        -0.706284
 H        -2.508608         0.141403         0.274677
 H        -1.955277         1.060967         2.580515
 H        -2.021216         3.699226         1.247832
 H        -1.184245         4.326735         3.368928
 H        -0.533380         2.868884         3.728656
 H         0.717141         4.877723         1.975418
 H         1.595740         4.036868         3.166290
 H        -0.168835         3.447863        -0.234308
