19
Iteration:   311charge 0 multiplicity 1
 O         0.211827        -0.014956         0.522467
 C        -0.623035         1.183303         0.616182
 C        -1.999891         1.326168         0.154209
 C        -1.670058         1.559153         1.645441
 C        -1.256350         3.004327         1.653752
 C        -0.493449         3.516520         2.932620
 C         0.789384         4.023216         2.241750
 O         1.021331         2.840304         1.489415
 C        -0.119053         2.689670         0.664387
 H         0.889599         0.093690         1.127128
 H        -2.164593         2.248683        -0.374777
 H        -2.728674         0.521373        -0.155307
 H        -2.052786         1.052030         2.514887
 H        -1.853256         3.809243         1.209958
 H        -1.063745         4.405241         3.335670
 H        -0.289109         2.770719         3.745876
 H         0.535950         4.804242         1.604603
 H         1.684256         4.283799         2.816991
 H        -0.070707         3.255266        -0.275326
