19
Iteration:  1866charge 0 multiplicity 1
 O         0.429929         0.267979         0.640528
 C        -0.637751         1.165901         0.691264
 C        -2.024171         1.115877         0.195993
 C        -1.814763         1.612474         1.689934
 C        -1.379651         3.014286         1.646333
 C        -0.643456         3.674458         2.757484
 C         0.954843         3.446143         2.534226
 O         1.102093         3.025127         1.168853
 C        -0.217699         2.750311         0.617777
 H         1.106759         0.895077         0.757309
 H        -2.443603         1.839534        -0.503235
 H        -2.479378         0.187321         0.178896
 H        -2.259228         1.062048         2.426038
 H        -2.210670         3.631867         1.138866
 H        -0.909483         4.814658         2.694403
 H        -0.777673         3.324821         3.808877
 H         1.516151         4.407315         2.769307
 H         1.356328         2.680138         3.180217
 H        -0.106634         3.207613        -0.363782
