19
Iteration:  1480
 O         0.347842         0.237152         0.453559
 C        -0.586650         1.243628         0.719135
 C        -1.887416         0.967466         0.279801
 C        -1.811547         1.670799         1.692987
 C        -1.392747         3.133035         1.579566
 C        -0.588695         3.815665         2.706159
 C         0.918937         3.400309         2.628991
 O         1.046007         3.015686         1.238313
 C        -0.270546         2.674057         0.614820
 H         1.192196         0.634498         0.869775
 H        -2.296609         1.363917        -0.607017
 H        -1.968696        -0.141650         0.471525
 H        -2.262250         1.253018         2.660968
 H        -2.185750         3.920695         1.320276
 H        -0.547865         4.877720         2.775550
 H        -0.987516         3.470359         3.691973
 H         1.526405         4.239459         2.909188
 H         1.130521         2.515932         3.263572
 H        -0.330317         3.060047        -0.457603
