19
Iteration:  4503charge 0 multiplicity 1
 O         0.288054         0.185464         0.487793
 C        -0.580964         1.204089         0.704904
 C        -1.848939         1.243468         0.149132
 C        -1.793940         1.547400         1.686991
 C        -1.355641         3.008546         1.680693
 C        -0.606948         3.491544         2.923198
 C         0.795340         3.912099         2.329793
 O         1.128002         2.888706         1.430043
 C        -0.121309         2.677871         0.636600
 H        -0.021318        -0.152153        -0.360320
 H        -2.359285         1.993387        -0.479212
 H        -2.200361         0.228193         0.005109
 H        -2.354192         0.999421         2.418540
 H        -2.065138         3.804764         1.308809
 H        -1.163411         4.198454         3.451373
 H        -0.402164         2.650971         3.600019
 H         0.691388         4.874195         1.774483
 H         1.529223         3.960776         3.151870
 H        -0.003392         3.326464        -0.246727
