19
Iteration:  2550
 O         0.338275         0.218910         0.650190
 C        -0.558705         1.324220         0.626363
 C        -2.037552         1.056262         0.322820
 C        -1.587117         1.524977         1.719924
 C        -1.371619         3.093014         1.621805
 C        -0.669790         3.737368         2.725414
 C         0.795306         3.134885         2.602113
 O         1.103103         3.251765         1.111751
 C        -0.206529         2.781690         0.568844
 H         1.234081         0.496562         1.056663
 H        -2.629631         1.802025        -0.355010
 H        -2.334706         0.091635         0.148942
 H        -1.938634         1.103116         2.611765
 H        -2.125574         3.658745         1.079587
 H        -0.463793         4.808832         2.480489
 H        -1.165034         3.903412         3.775078
 H         1.597554         3.668225         3.078791
 H         0.799194         2.063303         2.778811
 H        -0.251136         3.149663        -0.461916
