19
Iteration:  1054charge 0 multiplicity 1
 O         0.278824         0.131530         0.589875
 C        -0.514399         1.296187         0.629472
 C        -1.928364         1.167243         0.396381
 C        -1.531993         1.624540         1.736142
 C        -1.371321         3.111975         1.548692
 C        -0.689981         3.765485         2.666454
 C         0.710888         3.216520         2.646601
 O         1.071665         3.087846         1.185901
 C        -0.198517         2.852224         0.462295
 H         0.980703         0.095878         1.344114
 H        -2.538858         1.859395        -0.243985
 H        -2.119940         0.048338         0.158147
 H        -1.690012         1.057355         2.718879
 H        -2.296147         3.575928         1.212613
 H        -0.648393         4.818844         2.736182
 H        -1.075269         3.456007         3.718026
 H         1.604362         3.764065         2.968969
 H         0.816881         2.212998         3.053413
 H        -0.206680         3.296613        -0.486300
