19
Iteration:  3095
 O         0.295595         0.224485         0.621417
 C        -0.648432         1.252311         0.596392
 C        -1.992391         1.097611         0.129756
 C        -1.831178         1.557726         1.534787
 C        -1.353149         3.031634         1.690372
 C        -0.539680         3.547839         3.002783
 C         0.924589         3.823352         2.342180
 O         1.093737         2.838564         1.310827
 C        -0.144479         2.771972         0.655079
 H         0.859400         0.418528         1.388331
 H        -2.382750         1.744312        -0.603915
 H        -2.267107         0.055757         0.128591
 H        -2.201159         0.864880         2.215658
 H        -2.189393         3.705018         1.402298
 H        -0.979533         4.486323         3.374632
 H        -0.583436         2.613901         3.741242
 H         0.939123         4.855106         1.974432
 H         1.783286         3.907021         2.973697
 H        -0.041114         3.440802        -0.293618
