19
Iteration:  4214
 O         0.339827         0.125829         0.591412
 C        -0.624227         1.223897         0.612288
 C        -2.010893         1.124002         0.153443
 C        -1.751722         1.631686         1.606001
 C        -1.299042         3.040061         1.652413
 C        -0.541711         3.530837         2.917627
 C         0.825448         3.826667         2.473976
 O         1.078068         2.965282         1.367892
 C        -0.134069         2.747654         0.575590
 H         0.229894        -0.212043        -0.325446
 H        -2.650459         1.681520        -0.595308
 H        -2.490570         0.106918         0.218224
 H        -1.982965         1.008830         2.520058
 H        -2.145613         3.790260         1.416644
 H        -1.186356         4.282749         3.402498
 H        -0.533974         2.688768         3.638422
 H         1.148117         4.896215         2.291816
 H         1.587290         3.598696         3.209037
 H        -0.069424         3.299550        -0.380662
