19
Iteration:   585
 O         0.197177         0.097748         0.473025
 C        -0.520397         1.302569         0.675619
 C        -1.989258         1.072638         0.329773
 C        -1.630085         1.591416         1.701696
 C        -1.349738         3.097011         1.577678
 C        -0.631116         3.837963         2.762077
 C         0.850099         3.394865         2.662995
 O         1.060600         3.072705         1.250966
 C        -0.139143         2.737411         0.503837
 H         0.970021         0.239675         0.956607
 H        -2.597729         1.622638        -0.437218
 H        -2.080866        -0.032477         0.099470
 H        -1.755728         1.023167         2.674888
 H        -2.235100         3.611073         1.263144
 H        -0.668926         4.871195         2.476538
 H        -1.194308         3.780750         3.728749
 H         1.566177         4.204432         2.962275
 H         1.022555         2.491143         3.249677
 H        -0.086816         3.153986        -0.493014
