19
Iteration:   460charge 0 multiplicity 1
 O         0.377449         0.283519         0.582174
 C        -0.529336         1.297889         0.763477
 C        -2.003976         1.088326         0.414752
 C        -1.730043         1.579637         1.775885
 C        -1.415883         3.182459         1.583750
 C        -0.603078         3.826419         2.711908
 C         0.695236         3.031011         2.507065
 O         1.091790         3.168776         1.141317
 C        -0.147456         2.718457         0.491954
 H         1.262277         0.676783         0.871468
 H        -2.377703         1.717008        -0.333354
 H        -2.134470         0.002947         0.212984
 H        -1.922388         1.009692         2.677552
 H        -2.249746         3.711282         0.981500
 H        -0.257294         4.790742         2.428321
 H        -0.958263         3.768678         3.706277
 H         1.523198         3.410732         3.188780
 H         0.567877         2.008685         2.914921
 H         0.000643         3.085359        -0.577851
