19
Iteration:  1078
 O         0.312867         0.178540         0.521610
 C        -0.573863         1.249484         0.616658
 C        -2.005999         0.971066         0.397932
 C        -1.536031         1.692386         1.683266
 C        -1.328510         3.196750         1.510217
 C        -0.627397         3.840900         2.705734
 C         0.713773         3.113307         2.659612
 O         0.992475         3.177911         1.262635
 C        -0.134266         2.793234         0.522746
 H         1.096703         0.312389         1.011350
 H        -2.687559         1.346324        -0.294418
 H        -2.154609        -0.034753         0.668527
 H        -1.694256         1.207079         2.640619
 H        -2.106796         3.704842         0.939123
 H        -0.400819         4.880919         2.654608
 H        -1.113586         3.733441         3.688053
 H         1.614602         3.573707         3.045432
 H         0.710296         2.088320         3.010030
 H        -0.094823         3.307010        -0.438370
