19
Iteration:  1870
 O         0.405947         0.278958         0.651058
 C        -0.644454         1.197690         0.705206
 C        -2.004808         1.110446         0.195862
 C        -1.790395         1.580332         1.640827
 C        -1.401041         3.043082         1.656537
 C        -0.625154         3.681662         2.756422
 C         0.936760         3.434899         2.538085
 O         1.102207         3.022005         1.170366
 C        -0.225727         2.725380         0.609790
 H         1.279176         0.837276         0.736999
 H        -2.427370         1.913322        -0.437958
 H        -2.402181         0.071203         0.225624
 H        -2.301895         1.027955         2.476165
 H        -2.152910         3.772698         1.308039
 H        -0.852128         4.686440         2.767845
 H        -0.791780         3.356014         3.747512
 H         1.466385         4.411288         2.605310
 H         1.389986         2.711141         3.239575
 H        -0.129155         3.209325        -0.412543
