19
Iteration:   267charge 0 multiplicity 1
 O         0.134367         0.073133         0.444319
 C        -0.597650         1.259918         0.701218
 C        -2.102077         1.099672         0.224336
 C        -1.823871         1.548435         1.639529
 C        -1.184355         3.022248         1.587753
 C        -0.564313         3.589715         2.828903
 C         0.842614         3.902188         2.435021
 O         1.177884         2.985108         1.389114
 C        -0.036559         2.668557         0.710647
 H         0.917112         0.142195         0.876567
 H        -2.609664         1.762025        -0.427498
 H        -2.316363         0.019596         0.008913
 H        -2.021290         0.922674         2.526727
 H        -1.961105         3.699545         1.198762
 H        -0.982580         4.610044         2.953900
 H        -0.697747         2.953187         3.715909
 H         0.835364         4.884971         2.012447
 H         1.609707         3.857881         3.173071
 H        -0.024747         3.217110        -0.266918
