19
Iteration:   608
 O         0.205973         0.144637         0.498300
 C        -0.569996         1.245390         0.641053
 C        -2.016693         0.943831         0.408196
 C        -1.641993         1.680280         1.700777
 C        -1.342065         3.129985         1.528456
 C        -0.648524         3.733490         2.654134
 C         0.842721         3.247293         2.620584
 O         1.116718         3.252667         1.249683
 C        -0.063379         2.805225         0.569980
 H         0.932260         0.223484         1.268494
 H        -2.739327         1.578110        -0.231987
 H        -2.339260        -0.161192         0.406004
 H        -2.006273         1.181036         2.612276
 H        -1.996362         3.799462         1.052206
 H        -0.738174         4.824502         2.567771
 H        -1.101365         3.445261         3.659190
 H         1.470474         3.923564         3.186618
 H         0.902526         2.208050         3.017281
 H        -0.114705         3.302134        -0.359229
