19
Iteration:  2686
 O         0.219271         0.207136         0.409599
 C        -0.590331         1.247301         0.636844
 C        -2.031111         1.044959         0.173753
 C        -1.791549         1.561850         1.605603
 C        -1.300247         3.048573         1.694144
 C        -0.606355         3.588544         2.918843
 C         0.879945         3.979705         2.309670
 O         1.148958         2.781141         1.482871
 C        -0.160284         2.653704         0.683373
 H         1.043409         0.409231         0.952771
 H        -2.401536         1.723973        -0.535592
 H        -2.113961        -0.003030         0.041907
 H        -2.248535         1.137448         2.422788
 H        -1.963571         3.874265         1.303195
 H        -0.975948         4.585058         3.401330
 H        -0.366352         2.872072         3.823765
 H         0.921949         5.055278         1.803838
 H         1.624742         3.994859         3.121733
 H        -0.066632         3.126638        -0.247679
