19
Iteration:   495charge 0 multiplicity 1
 O         0.349975         0.262564         0.573358
 C        -0.589490         1.284825         0.544308
 C        -2.008432         1.001862         0.485217
 C        -1.570728         1.715403         1.689499
 C        -1.351282         3.213598         1.456874
 C        -0.596796         3.780226         2.759456
 C         0.751833         3.156810         2.604987
 O         0.990000         3.004711         1.276454
 C        -0.187790         2.758005         0.469736
 H         1.116488         0.704752         0.840422
 H        -2.591270         1.373217        -0.300957
 H        -2.236568         0.003118         0.658242
 H        -1.650340         1.156894         2.590935
 H        -2.197582         3.798648         1.082972
 H        -0.436306         4.814992         2.799016
 H        -1.089962         3.572122         3.667645
 H         1.514966         3.946700         2.977390
 H         0.889674         2.194352         3.025215
 H         0.019973         3.331303        -0.430852
