19
Iteration:  4999
 O         0.245748         0.202466         0.320976
 C        -0.543498         1.283280         0.666080
 C        -1.994264         1.132151         0.217849
 C        -1.694226         1.516473         1.697490
 C        -1.283839         3.021582         1.641225
 C        -0.626958         3.577393         2.896043
 C         0.808088         3.920636         2.357262
 O         1.046778         2.777721         1.477021
 C        -0.079803         2.723638         0.702102
 H         1.142131         0.391523         0.686881
 H        -2.421376         1.830658        -0.526474
 H        -2.385276         0.167122         0.030161
 H        -2.057083         1.080979         2.598778
 H        -2.102069         3.567723         1.219936
 H        -1.203589         4.378876         3.456059
 H        -0.459886         2.709640         3.489667
 H         0.690258         4.923592         1.831187
 H         1.479480         3.919432         3.157148
 H        -0.236999         3.332706        -0.212450
