19
Iteration:  1598
 O         0.494770         0.375228         0.646193
 C        -0.579000         1.206435         0.683209
 C        -2.042991         1.072943         0.332447
 C        -1.778841         1.652207         1.684238
 C        -1.373476         3.135216         1.561536
 C        -0.612274         3.785788         2.756153
 C         0.865464         3.246506         2.569120
 O         1.045604         2.985402         1.135985
 C        -0.240889         2.689489         0.563526
 H         1.400902         0.832066         0.575539
 H        -2.455778         1.664206        -0.476300
 H        -2.483240         0.039118         0.476970
 H        -2.027963         1.108953         2.627195
 H        -2.191481         3.693951         1.029637
 H        -0.764360         4.907226         2.832046
 H        -1.189054         3.270463         3.633434
 H         1.625340         3.938265         2.936988
 H         0.883267         2.275845         3.067769
 H        -0.145267         3.139622        -0.389746
