19
Iteration:   236charge 0 multiplicity 1
 O         0.272128         0.112620         0.548780
 C        -0.589334         1.233371         0.587503
 C        -2.009881         1.143068         0.307414
 C        -1.529834         1.663118         1.678848
 C        -1.280372         3.164104         1.552286
 C        -0.635293         3.627113         2.805578
 C         0.822639         3.690488         2.467027
 O         1.003814         2.770983         1.337705
 C        -0.184910         2.776217         0.581208
 H         1.116935         0.367863         1.120853
 H        -2.332309         1.946523        -0.361484
 H        -2.692388         0.241653         0.310985
 H        -1.784868         1.065681         2.531042
 H        -2.286383         3.683464         1.281952
 H        -0.930016         4.588007         3.247963
 H        -0.920989         2.933741         3.624455
 H         1.110235         4.734346         2.035010
 H         1.547205         3.441420         3.293507
 H        -0.208114         3.375005        -0.396377
