19
Iteration:  4542
 O         0.250957         0.123451         0.663517
 C        -0.608587         1.278673         0.481097
 C        -2.020268         1.181843         0.081060
 C        -1.739055         1.547957         1.632706
 C        -1.296631         2.928692         1.671443
 C        -0.554575         3.463939         2.956264
 C         0.830236         3.969089         2.418173
 O         1.103956         2.938209         1.383427
 C        -0.110777         2.772600         0.612020
 H         0.821843        -0.092318        -0.097722
 H        -2.472166         1.940452        -0.680217
 H        -2.552143         0.263050         0.228937
 H        -2.018330         0.859584         2.466541
 H        -2.174671         3.520657         1.432697
 H        -1.178142         4.190358         3.694686
 H        -0.360876         2.717097         3.804275
 H         0.922349         5.042048         2.101057
 H         1.628183         3.729755         3.137294
 H        -0.146000         3.223919        -0.432131
