19
Iteration:  2025charge 0 multiplicity 1
 O         0.461633         0.410770         0.533468
 C        -0.586760         1.298563         0.635859
 C        -1.987023         0.948106         0.374484
 C        -1.688510         1.747913         1.732726
 C        -1.332851         3.188598         1.496547
 C        -0.658915         3.703760         2.749777
 C         0.820272         3.204922         2.595056
 O         1.028631         2.906848         1.248869
 C        -0.285031         2.767278         0.491251
 H         1.298256         0.769310         0.994991
 H        -2.718938         1.296548        -0.477639
 H        -2.151274        -0.012827         0.758268
 H        -2.033066         1.361191         2.704181
 H        -2.175183         3.736809         1.042849
 H        -0.644497         4.694499         3.002622
 H        -1.074991         3.144947         3.579459
 H         1.490518         4.014746         2.854806
 H         1.092974         2.321130         3.211954
 H        -0.150676         3.385337        -0.472391
