19
Iteration:  3004
 O         0.234212         0.049655         0.516391
 C        -0.604195         1.280260         0.559293
 C        -1.971534         1.044585         0.193079
 C        -1.667448         1.604932         1.621247
 C        -1.326886         3.141861         1.672842
 C        -0.626841         3.647422         2.884192
 C         0.853140         3.756036         2.462662
 O         1.085273         2.874157         1.373327
 C        -0.188850         2.805455         0.599548
 H         0.940804         0.485585         0.976426
 H        -2.491116         1.574328        -0.575662
 H        -2.059719        -0.044252         0.208114
 H        -1.988048         0.920725         2.502071
 H        -2.137263         3.879536         1.429756
 H        -0.941160         4.659628         3.169137
 H        -0.641641         2.879836         3.718403
 H         1.221114         4.740135         2.256970
 H         1.679409         3.435395         3.114330
 H        -0.157268         3.410251        -0.317845
