19
Iteration:  3667
 O         0.335296         0.242555         0.641786
 C        -0.609557         1.283388         0.542914
 C        -2.010291         1.088201         0.192340
 C        -1.698835         1.643169         1.608170
 C        -1.359096         3.094291         1.542776
 C        -0.560391         3.435942         2.895286
 C         0.879518         3.776268         2.397959
 O         1.010659         2.804604         1.388552
 C        -0.170290         2.820784         0.642455
 H         0.910413         0.467115         1.377890
 H        -2.622852         1.654928        -0.666087
 H        -2.296974         0.014078         0.164066
 H        -2.097160         1.186268         2.592770
 H        -2.134253         3.830557         1.157820
 H        -0.971285         4.279512         3.498087
 H        -0.285407         2.469474         3.291899
 H         0.865053         4.803672         2.014459
 H         1.579348         3.557174         3.142848
 H         0.014337         3.370921        -0.286967
