19
Iteration:   713
 O         0.367072         0.290828         0.713198
 C        -0.501500         1.329350         0.693507
 C        -1.933908         1.086203         0.348492
 C        -1.750975         1.688421         1.705279
 C        -1.392248         3.171160         1.508520
 C        -0.618063         3.645462         2.753898
 C         0.822832         3.147957         2.540157
 O         1.051631         2.975304         1.120598
 C        -0.246822         2.836331         0.512968
 H         1.258207         0.707832         0.827076
 H        -2.450547         1.688460        -0.387107
 H        -2.165850         0.001845         0.203577
 H        -2.212522         1.274717         2.665414
 H        -2.051535         4.078805         1.244878
 H        -0.755977         4.767396         2.938301
 H        -1.133644         3.174721         3.582726
 H         1.593373         3.895573         2.984407
 H         1.030382         2.212998         3.071714
 H        -0.212213         3.181523        -0.595270
