19
Iteration:  4530
 O         0.320287         0.143364         0.615790
 C        -0.604523         1.183439         0.559960
 C        -2.066008         1.194504         0.088751
 C        -1.710411         1.512167         1.562635
 C        -1.263189         3.031288         1.703479
 C        -0.527613         3.494753         2.997068
 C         0.796681         3.918787         2.401172
 O         1.098576         2.958281         1.418968
 C        -0.165571         2.693766         0.653617
 H         0.453955        -0.165805        -0.282672
 H        -2.587430         1.925143        -0.567138
 H        -2.468182         0.187551        -0.051487
 H        -2.391955         0.936635         2.279118
 H        -1.960169         3.800187         1.350043
 H        -1.080202         4.477266         3.348029
 H        -0.322074         2.613000         3.646248
 H         0.722672         4.902445         1.863440
 H         1.656949         4.015193         3.117722
 H        -0.080316         3.427749        -0.211923
