19
Iteration:  3014
 O         0.196049         0.151928         0.544975
 C        -0.533087         1.277002         0.570406
 C        -1.992635         1.022378         0.236515
 C        -1.678200         1.618641         1.546437
 C        -1.350108         3.098631         1.604179
 C        -0.550991         3.641784         2.883444
 C         0.946297         3.782787         2.537282
 O         1.033571         2.882374         1.356228
 C        -0.215546         2.776322         0.553273
 H         0.984290         0.080213         1.095866
 H        -2.619057         1.599998        -0.448272
 H        -2.193591        -0.105952         0.190387
 H        -1.656159         0.955596         2.496207
 H        -2.216855         3.775449         1.366670
 H        -1.117668         4.467088         3.380220
 H        -0.638984         2.834351         3.636464
 H         1.199555         4.790158         2.257985
 H         1.363010         3.346803         3.477241
 H        -0.139808         3.194410        -0.422610
