19
Iteration:   525charge 0 multiplicity 1
 O         0.327041         0.358403         0.502692
 C        -0.664017         1.280608         0.617088
 C        -2.027788         0.985367         0.327976
 C        -1.703606         1.589989         1.693661
 C        -1.340112         3.089365         1.565712
 C        -0.593551         3.877455         2.692334
 C         0.879535         3.373179         2.589513
 O         1.126978         2.831601         1.293477
 C        -0.224237         2.766405         0.617718
 H         1.169891         0.718900         0.987947
 H        -2.515039         1.398266        -0.538493
 H        -2.165337        -0.081333         0.528140
 H        -2.076055         1.006280         2.491675
 H        -2.206900         3.749284         1.151437
 H        -0.658268         4.979177         2.533499
 H        -0.985944         3.650038         3.674702
 H         1.625978         4.182207         2.886059
 H         1.009442         2.465915         3.242241
 H        -0.226035         3.438562        -0.314917
