19
Iteration:  2318charge 0 multiplicity 1
 O         0.467940         0.324639         0.532754
 C        -0.553316         1.311337         0.657480
 C        -1.950616         1.067714         0.330225
 C        -1.722721         1.637390         1.701107
 C        -1.394289         3.081251         1.604166
 C        -0.635229         3.791442         2.698058
 C         0.860466         3.315563         2.573268
 O         1.030560         2.841606         1.198528
 C        -0.327702         2.760188         0.617963
 H         1.282181         0.667922         0.827702
 H        -2.500351         1.736562        -0.287586
 H        -2.335109         0.035856         0.225264
 H        -1.881413         1.201280         2.720213
 H        -2.138758         3.815552         1.185377
 H        -0.747301         4.924689         2.512787
 H        -1.053737         3.736285         3.760990
 H         1.609054         4.043763         2.830673
 H         0.978933         2.387192         3.232969
 H        -0.356430         3.305353        -0.268744
