19
Iteration:  4053
 O         0.213863         0.154170         0.586510
 C        -0.573921         1.238414         0.587497
 C        -1.993030         1.156761         0.061544
 C        -1.766979         1.469136         1.650365
 C        -1.452736         2.962951         1.661744
 C        -0.514371         3.546134         2.929027
 C         0.873432         3.938149         2.403955
 O         1.161918         2.925951         1.355016
 C        -0.097316         2.737884         0.610891
 H         0.813161         0.095493         1.330333
 H        -2.361359         2.092483        -0.504022
 H        -2.545552         0.181237        -0.081528
 H        -2.168712         1.105114         2.674195
 H        -2.239107         3.602544         1.358661
 H        -1.005933         4.239354         3.565742
 H        -0.571111         2.713525         3.663303
 H         1.040361         5.045970         1.952315
 H         1.668128         3.855616         3.145085
 H        -0.190016         3.282759        -0.398062
