19
Iteration:  4906
 O         0.308242         0.192615         0.521604
 C        -0.562128         1.235939         0.625305
 C        -2.004353         1.105339         0.251393
 C        -1.765688         1.697648         1.593260
 C        -1.311120         3.096525         1.616238
 C        -0.571155         3.393901         2.967119
 C         0.828112         3.721005         2.511503
 O         1.064626         3.004888         1.234464
 C        -0.165236         2.711739         0.599925
 H         1.094777         0.487814         0.998853
 H        -2.497214         1.570939        -0.681087
 H        -2.366300         0.068098         0.377235
 H        -2.159832         1.023157         2.469626
 H        -2.096144         3.881920         1.301794
 H        -0.987476         4.319045         3.353170
 H        -0.667314         2.456019         3.647698
 H         0.783192         4.839664         2.322018
 H         1.805492         3.550760         3.122049
 H        -0.105541         3.194078        -0.356336
