19
Iteration:  4764charge 0 multiplicity 1
 O         0.213258         0.148931         0.315668
 C        -0.583065         1.248106         0.574280
 C        -1.980977         1.165642         0.198346
 C        -1.651111         1.486734         1.685981
 C        -1.300928         3.001312         1.635850
 C        -0.603631         3.643705         2.932144
 C         0.830948         3.946728         2.412660
 O         1.092186         2.829830         1.498991
 C        -0.171635         2.675955         0.692383
 H         1.080221         0.249617         0.731611
 H        -2.486752         2.075332        -0.218080
 H        -2.353200         0.165287         0.034112
 H        -2.011027         0.904746         2.570933
 H        -2.075023         3.583463         1.208779
 H        -1.234769         4.456263         3.258395
 H        -0.595918         2.732969         3.604879
 H         0.966071         4.959434         1.885121
 H         1.543206         3.933127         3.163426
 H        -0.045324         3.347711        -0.219789
