19
Iteration:  2781
 O         0.311033         0.238818         0.570817
 C        -0.599778         1.195318         0.677188
 C        -2.028398         1.106742         0.136885
 C        -1.801241         1.582281         1.567618
 C        -1.337155         3.119938         1.677485
 C        -0.490221         3.496568         2.897856
 C         0.835624         3.832210         2.386040
 O         1.087100         2.902971         1.361378
 C        -0.198815         2.656037         0.633054
 H         1.184831         0.438599         1.030994
 H        -2.297374         1.830795        -0.699314
 H        -2.620319         0.129000         0.148165
 H        -2.319322         1.046851         2.447264
 H        -1.837111         3.978777         1.194271
 H        -0.996973         4.278563         3.467635
 H        -0.435764         2.611084         3.565714
 H         1.095097         4.960673         2.060170
 H         1.548844         3.506305         3.176582
 H        -0.104104         3.173524        -0.384612
