19
Iteration:  4099
 O         0.380858         0.153905         0.481158
 C        -0.629865         1.217698         0.616702
 C        -2.073982         1.134027         0.253092
 C        -1.762227         1.614785         1.619065
 C        -1.322591         3.132452         1.632376
 C        -0.577699         3.573778         2.930720
 C         0.755594         3.817993         2.397644
 O         1.105018         2.796601         1.379643
 C        -0.119730         2.738239         0.571386
 H         1.128438         0.384945         1.095297
 H        -2.324644         1.858046        -0.463550
 H        -2.352844         0.091195         0.049465
 H        -2.077394         0.959725         2.392948
 H        -2.045082         3.879082         1.468331
 H        -1.079023         4.326627         3.571527
 H        -0.483936         2.701851         3.674473
 H         0.828275         4.905240         2.008716
 H         1.516535         3.821883         3.261443
 H         0.031656         3.203491        -0.453071
