19
Iteration:  2330
 O         0.472129         0.425442         0.574641
 C        -0.600674         1.236703         0.657059
 C        -2.023191         1.137140         0.291823
 C        -1.686967         1.546105         1.746057
 C        -1.364210         3.099128         1.592665
 C        -0.599527         3.803185         2.726140
 C         0.883559         3.330449         2.570160
 O         0.991739         2.809147         1.240102
 C        -0.269361         2.722835         0.548062
 H         1.155635         1.159678         0.724963
 H        -2.411760         1.716681        -0.448907
 H        -2.423753         0.053029         0.385566
 H        -2.208509         0.845235         2.502412
 H        -2.208092         3.749421         1.167815
 H        -0.641847         4.915067         2.462386
 H        -1.202032         3.503284         3.664901
 H         1.553420         4.164447         2.589347
 H         1.265470         2.583565         3.361544
 H        -0.222887         3.143773        -0.395800
