19
Iteration:  2405
 O         0.279994         0.067676         0.500466
 C        -0.528821         1.205571         0.653097
 C        -2.034075         1.140220         0.366236
 C        -1.638699         1.575760         1.750166
 C        -1.325063         3.037273         1.545933
 C        -0.664591         3.775224         2.764725
 C         0.793609         3.301438         2.614138
 O         1.052508         3.318398         1.133244
 C        -0.058969         2.737026         0.598502
 H         1.135270         0.229651         1.036640
 H        -2.531470         1.824288        -0.337564
 H        -2.411803        -0.025241         0.260220
 H        -2.223611         1.283991         2.723666
 H        -2.096922         3.614555         1.064908
 H        -0.835415         4.868775         2.905309
 H        -1.155061         3.311545         3.651655
 H         1.403458         4.052516         3.069982
 H         1.161715         2.370186         3.064505
 H        -0.133337         3.127079        -0.467955
