19
Iteration:  3998charge 0 multiplicity 1
 O         0.249688         0.151007         0.549174
 C        -0.622289         1.242863         0.720899
 C        -2.054821         1.156880         0.190633
 C        -1.758586         1.564778         1.565222
 C        -1.345703         3.096562         1.629075
 C        -0.518818         3.435889         2.825407
 C         0.813917         3.868231         2.402885
 O         1.143622         2.959370         1.335890
 C        -0.093357         2.703253         0.709250
 H         1.047785         0.280089         1.069603
 H        -2.324632         1.650855        -0.792863
 H        -2.361218         0.102607         0.187961
 H        -2.256392         0.993121         2.423740
 H        -1.989525         3.864054         1.316086
 H        -0.959587         4.193125         3.431402
 H        -0.437035         2.423679         3.272277
 H         0.881545         5.004894         2.046898
 H         1.412373         3.816468         3.298951
 H        -0.199466         3.178192        -0.300345
