19
Iteration:   923charge 0 multiplicity 1
 O         0.290740         0.178894         0.607369
 C        -0.500271         1.311048         0.738067
 C        -1.864426         1.023893         0.275037
 C        -1.737934         1.676866         1.747371
 C        -1.388338         3.157228         1.544288
 C        -0.588100         3.799426         2.729650
 C         0.782226         3.112644         2.550548
 O         1.009770         3.176007         1.172066
 C        -0.210124         2.804042         0.585184
 H         1.188201         0.141034         0.854261
 H        -2.173678         1.480131        -0.664200
 H        -2.069924        -0.004704         0.397849
 H        -2.155817         1.155395         2.645896
 H        -2.161727         3.752331         1.060042
 H        -0.458420         4.845041         2.579036
 H        -0.908814         3.583247         3.812457
 H         1.624619         3.657759         3.054530
 H         0.870730         2.056302         2.881975
 H        -0.334448         3.143454        -0.502102
