19
Iteration:  2010charge 0 multiplicity 1
 O         0.437965         0.364081         0.588561
 C        -0.544868         1.323969         0.572541
 C        -2.036902         1.028164         0.469676
 C        -1.703013         1.637969         1.704781
 C        -1.421427         3.115409         1.505156
 C        -0.644930         3.690761         2.719953
 C         0.799668         3.186984         2.629014
 O         1.063387         2.994134         1.164995
 C        -0.174106         2.794489         0.541375
 H         1.089701         0.914722         0.972617
 H        -2.495743         1.667129        -0.192046
 H        -2.327551        -0.085157         0.260214
 H        -1.753087         1.071024         2.723791
 H        -2.182819         3.915875         1.237539
 H        -0.690935         4.881648         2.535728
 H        -1.147661         3.423268         3.683232
 H         1.563807         3.885736         3.044788
 H         0.852232         2.201770         3.091764
 H        -0.070249         3.161199        -0.497625
