19
Iteration:    64charge 0 multiplicity 1
 O         0.407187         0.313256         0.720867
 C        -0.633164         1.273079         0.732420
 C        -2.077749         1.077813         0.334061
 C        -1.727827         1.619973         1.690389
 C        -1.380096         3.174770         1.477330
 C        -0.592757         3.646749         2.798439
 C         0.847241         3.195571         2.544671
 O         1.124504         3.069560         1.118987
 C        -0.219647         2.767503         0.473761
 H         1.211919         0.895795         0.882547
 H        -2.427249         1.925338        -0.394893
 H        -2.616156         0.124205         0.247717
 H        -1.963080         1.017735         2.577125
 H        -2.164404         3.824953         1.138918
 H        -0.625456         4.777517         2.920647
 H        -1.027478         3.098225         3.688982
 H         1.607882         3.829680         2.983366
 H         1.149421         2.259610         3.093524
 H        -0.093159         3.159231        -0.558345
