19
Iteration:  4393
 O         0.359390         0.272966         0.536878
 C        -0.658594         1.253340         0.556519
 C        -2.076487         1.111194         0.214028
 C        -1.793447         1.470982         1.638016
 C        -1.352762         3.029539         1.617778
 C        -0.563215         3.614657         2.887044
 C         0.906836         3.783192         2.451342
 O         1.112082         2.826329         1.363022
 C        -0.188872         2.734112         0.646057
 H         1.248158         0.638492         0.762301
 H        -2.412135         1.950948        -0.463121
 H        -2.213518         0.069233        -0.127476
 H        -2.061923         0.935500         2.570532
 H        -2.100443         3.850129         1.404746
 H        -0.974011         4.540311         3.157274
 H        -0.650712         2.820338         3.629231
 H         1.074990         4.811642         2.110457
 H         1.533967         3.561709         3.352568
 H        -0.120946         3.355983        -0.290001
