19
Iteration:  4022
 O         0.246372         0.052139         0.565934
 C        -0.557309         1.243076         0.686691
 C        -1.968618         1.190726         0.134008
 C        -1.823044         1.631404         1.627448
 C        -1.257185         3.023901         1.606755
 C        -0.550433         3.479040         3.014813
 C         0.750043         3.891347         2.398999
 O         1.068214         2.964821         1.296368
 C        -0.098066         2.657694         0.616607
 H         1.237615         0.136156         0.513186
 H        -2.330629         1.924806        -0.547754
 H        -2.362357         0.197455        -0.136868
 H        -2.150868         1.367183         2.660441
 H        -1.727117         3.951079         1.337026
 H        -1.107360         4.329867         3.420998
 H        -0.419799         2.497239         3.611322
 H         0.692461         5.039963         2.157618
 H         1.591223         3.810356         3.147948
 H        -0.253952         3.155154        -0.348784
