19
Iteration:  4015
 O         0.227787         0.063574         0.554536
 C        -0.564209         1.211557         0.685901
 C        -1.925922         1.162476         0.155430
 C        -1.816764         1.666743         1.662443
 C        -1.310874         3.040705         1.582480
 C        -0.596673         3.431972         2.985436
 C         0.831672         3.906330         2.410456
 O         1.116653         2.984370         1.326716
 C        -0.135865         2.670417         0.595459
 H         1.149750         0.377900         0.524483
 H        -2.337384         1.945265        -0.483651
 H        -2.398833         0.205628         0.000654
 H        -2.371874         1.269001         2.477845
 H        -2.059280         3.899079         1.265673
 H        -1.154298         4.227309         3.569368
 H        -0.390406         2.543634         3.587941
 H         0.649333         4.873003         2.065629
 H         1.771724         3.778787         3.000352
 H         0.003713         3.119413        -0.402023
