19
Iteration:   530charge 0 multiplicity 1
 O         0.334546         0.375313         0.502979
 C        -0.641813         1.279481         0.599893
 C        -2.027469         1.016765         0.310813
 C        -1.733396         1.577495         1.723617
 C        -1.383317         3.068144         1.559492
 C        -0.556604         3.852865         2.681431
 C         0.862326         3.376479         2.551299
 O         1.091179         2.856292         1.321327
 C        -0.170025         2.731095         0.641163
 H         1.091438         0.724186         0.893592
 H        -2.531651         1.604120        -0.495315
 H        -2.274456        -0.033458         0.488722
 H        -2.071537         0.964741         2.610166
 H        -2.167008         3.656491         1.194704
 H        -0.539857         4.898770         2.392607
 H        -0.928423         3.703592         3.720873
 H         1.531399         4.205826         2.829655
 H         1.141997         2.631758         3.301313
 H        -0.110829         3.206406        -0.308177
