19
Iteration:  1686
 O         0.265985         0.134918         0.581128
 C        -0.482221         1.284373         0.781643
 C        -1.907862         1.119437         0.338493
 C        -1.663236         1.664125         1.780128
 C        -1.365175         3.103981         1.518813
 C        -0.671265         3.678654         2.724332
 C         0.847278         3.314058         2.529725
 O         0.985732         3.180777         1.134265
 C        -0.184825         2.694390         0.595136
 H         1.158908         0.374179         0.830049
 H        -2.268961         1.861961        -0.483724
 H        -2.087708         0.154217         0.059795
 H        -2.143413         1.148280         2.518270
 H        -2.128017         3.719873         1.024095
 H        -0.545070         4.802012         2.814275
 H        -1.163776         3.271426         3.733645
 H         1.459487         4.098389         2.907542
 H         1.113774         2.336418         2.968883
 H        -0.149248         2.976937        -0.405791
