19
Iteration:   798charge 0 multiplicity 1
 O         0.295439         0.171526         0.499721
 C        -0.596692         1.241674         0.663791
 C        -2.007833         1.211289         0.333321
 C        -1.656755         1.525985         1.724232
 C        -1.333935         3.017251         1.544017
 C        -0.626289         3.819589         2.696259
 C         0.814659         3.431116         2.624173
 O         1.078410         3.003881         1.243487
 C        -0.145449         2.704627         0.621857
 H         1.136391         0.440107         0.890693
 H        -2.528544         2.039442        -0.377558
 H        -2.462795         0.153761         0.100567
 H        -1.798155         1.076138         2.745114
 H        -2.086778         3.713022         1.117241
 H        -0.892086         4.971523         2.544562
 H        -1.202784         3.576311         3.593475
 H         1.507531         4.269186         2.799316
 H         1.077003         2.563596         3.236751
 H         0.046905         3.065051        -0.402297
