19
Iteration:  2379charge 0 multiplicity 1
 O         0.204822         0.167493         0.553036
 C        -0.529806         1.310019         0.655054
 C        -1.927567         0.987839         0.295443
 C        -1.609119         1.643742         1.707191
 C        -1.387618         3.088605         1.574178
 C        -0.613135         3.688065         2.786257
 C         0.829869         3.404833         2.579856
 O         1.035393         3.072811         1.222354
 C        -0.170252         2.790150         0.541615
 H         1.167233         0.365207         0.781070
 H        -2.551632         1.610790        -0.473935
 H        -2.065390        -0.025782         0.286592
 H        -1.955956         1.360102         2.654796
 H        -2.196630         3.804120         1.294821
 H        -0.855976         4.733040         2.760513
 H        -0.959146         3.278528         3.716690
 H         1.490159         4.316670         2.852641
 H         1.237641         2.648874         3.219294
 H        -0.116236         3.202568        -0.544476
