19
Iteration:   424charge 0 multiplicity 1
 O         0.383700         0.248417         0.698566
 C        -0.617867         1.270268         0.599241
 C        -2.043292         1.018756         0.280269
 C        -1.724827         1.603508         1.634169
 C        -1.368556         3.148045         1.632532
 C        -0.550861         3.771280         2.815807
 C         0.889164         3.264315         2.594546
 O         1.049417         3.008530         1.153380
 C        -0.257208         2.806784         0.495514
 H         1.205843         0.694143         1.092312
 H        -2.474756         1.628395        -0.619828
 H        -2.326957        -0.045389         0.169157
 H        -1.943713         0.943799         2.521436
 H        -2.092933         3.935126         1.177798
 H        -0.654273         4.915881         2.752607
 H        -0.886108         3.626059         3.899474
 H         1.496077         4.104013         2.751129
 H         1.258851         2.320595         3.177144
 H        -0.282449         3.268343        -0.545587
