19
Iteration:  3819charge 0 multiplicity 1
 O         0.331305         0.228441         0.399025
 C        -0.552221         1.234429         0.714806
 C        -1.917519         1.184597         0.162875
 C        -1.812659         1.531224         1.698369
 C        -1.392418         3.111093         1.638518
 C        -0.551862         3.624815         2.907901
 C         0.840838         3.842526         2.331261
 O         1.057605         2.767020         1.429759
 C        -0.155910         2.617762         0.675001
 H         1.109273         0.410611         0.938392
 H        -2.524857         1.940686        -0.441799
 H        -2.293237         0.157085        -0.094115
 H        -2.476006         1.052492         2.449132
 H        -2.094713         3.757197         1.156204
 H        -1.069244         4.438307         3.441172
 H        -0.544731         2.924834         3.684222
 H         0.857843         4.865109         1.970739
 H         1.609645         3.871782         3.094826
 H        -0.141961         2.983738        -0.368858
