19
Iteration:  3300
 O         0.240834         0.113259         0.617247
 C        -0.652568         1.276782         0.546327
 C        -2.038057         1.189937         0.192927
 C        -1.655307         1.473872         1.627118
 C        -1.305093         2.996985         1.605556
 C        -0.619378         3.597316         2.894147
 C         0.809817         3.798420         2.464010
 O         1.150885         2.926977         1.359883
 C        -0.123776         2.781600         0.538282
 H         1.006311         0.451479         1.096193
 H        -2.639506         1.878083        -0.366337
 H        -2.523641         0.123037         0.129494
 H        -1.771039         0.756651         2.431306
 H        -2.077333         3.654919         1.217913
 H        -0.968316         4.512351         3.266157
 H        -0.738056         3.061706         3.800064
 H         1.115189         4.830507         2.190620
 H         1.583940         3.428417         3.265898
 H        -0.092382         3.369739        -0.453668
