19
Iteration:  4476charge 0 multiplicity 1
 O         0.338284         0.120423         0.500660
 C        -0.621191         1.162859         0.569096
 C        -2.063054         1.209697         0.160710
 C        -1.713206         1.549219         1.609525
 C        -1.287874         3.015667         1.617511
 C        -0.619772         3.539424         2.969119
 C         0.815536         3.948714         2.426896
 O         1.096098         2.941280         1.451396
 C        -0.067498         2.679407         0.642378
 H        -0.076641        -0.364624        -0.241169
 H        -2.550694         1.961588        -0.470343
 H        -2.548544         0.200973         0.141756
 H        -1.524681         0.944738         2.524109
 H        -1.943069         3.766626         1.188184
 H        -1.324320         4.315551         3.477036
 H        -0.543011         2.810964         3.819251
 H         0.769859         4.972217         1.969869
 H         1.565890         3.871944         3.227413
 H         0.067814         3.364438        -0.172191
