19
Iteration:  3279charge 0 multiplicity 1
 O         0.318714         0.198565         0.507079
 C        -0.552800         1.267262         0.657899
 C        -2.012245         1.142971         0.252415
 C        -1.660669         1.645780         1.610870
 C        -1.365707         3.072129         1.630572
 C        -0.670912         3.610393         2.895425
 C         0.811081         3.706896         2.435831
 O         1.072114         2.833506         1.294209
 C        -0.122751         2.686174         0.633904
 H         0.990552         0.282145         1.202681
 H        -2.370393         1.872333        -0.436280
 H        -2.382086         0.077623        -0.035939
 H        -2.020966         1.169595         2.526325
 H        -2.195857         3.751770         1.397712
 H        -1.072619         4.494565         3.280535
 H        -0.912038         2.924368         3.713039
 H         1.030108         4.696457         2.079038
 H         1.746767         3.522254         3.052143
 H        -0.027601         3.206486        -0.372103
