19
Iteration:   324charge 0 multiplicity 1
 O         0.150393         0.125798         0.595617
 C        -0.603196         1.207543         0.564350
 C        -2.062610         1.303568         0.148493
 C        -1.659829         1.531998         1.626966
 C        -1.237068         2.988111         1.716721
 C        -0.579915         3.560530         2.906777
 C         0.771537         3.962094         2.226443
 O         1.193996         2.793911         1.429155
 C        -0.096202         2.656327         0.686935
 H         0.930131         0.400363         1.224820
 H        -2.380676         2.175756        -0.550063
 H        -2.571410         0.334900        -0.080310
 H        -2.147927         0.914505         2.316590
 H        -2.209689         3.568782         1.422022
 H        -1.188970         4.318039         3.495917
 H        -0.377085         2.710068         3.647081
 H         0.607952         4.794509         1.570546
 H         1.617946         4.304966         2.924219
 H        -0.028935         3.323071        -0.248503
