19
Iteration:  1616charge 0 multiplicity 1
 O         0.382247         0.295382         0.698507
 C        -0.575235         1.304473         0.678732
 C        -1.973599         1.119510         0.303369
 C        -1.564019         1.581310         1.745670
 C        -1.391823         3.142128         1.554212
 C        -0.655046         3.665540         2.743723
 C         0.780089         3.242516         2.538423
 O         1.033869         2.988669         1.131051
 C        -0.233033         2.820186         0.496417
 H         1.057151         0.665028         1.363310
 H        -2.444248         1.839621        -0.376860
 H        -2.320595        -0.024756         0.164117
 H        -1.949015         1.073392         2.693761
 H        -2.215928         3.747009         1.287348
 H        -0.681493         4.744565         2.593462
 H        -0.971349         3.446493         3.723671
 H         1.549883         4.060256         2.737800
 H         1.119714         2.284957         3.012283
 H        -0.298948         3.211076        -0.568793
