19
Iteration:  2082
 O         0.349184         0.288767         0.551545
 C        -0.558557         1.286501         0.683400
 C        -2.044803         1.095698         0.266863
 C        -1.589151         1.528462         1.716515
 C        -1.377524         3.022420         1.578937
 C        -0.620096         3.789296         2.763701
 C         0.773827         3.324231         2.630637
 O         1.052580         3.051568         1.182549
 C        -0.180676         2.717138         0.543968
 H         1.054460         0.439023         1.176146
 H        -2.523902         1.963467        -0.331764
 H        -2.594452         0.138138         0.039238
 H        -1.760648         0.930295         2.551569
 H        -2.187640         3.574728         1.127014
 H        -0.467786         4.796118         2.544380
 H        -0.951663         3.826794         3.801443
 H         1.451814         4.126599         2.987038
 H         1.047582         2.423827         3.228384
 H        -0.181678         3.268834        -0.449325
