19
Iteration:   649charge 0 multiplicity 1
 O         0.408296         0.297534         0.723940
 C        -0.560593         1.296983         0.691020
 C        -1.937176         1.121132         0.279178
 C        -1.656215         1.699351         1.719877
 C        -1.392102         3.157889         1.563675
 C        -0.611197         3.700800         2.676132
 C         0.789601         3.069974         2.500802
 O         1.012793         3.021982         1.154074
 C        -0.267960         2.796950         0.601569
 H         1.208661         0.710902         0.803290
 H        -2.230266         1.769299        -0.473846
 H        -2.324252         0.082648         0.249017
 H        -2.034229         1.361907         2.746683
 H        -2.333253         3.743637         1.355151
 H        -0.472936         4.688117         2.405124
 H        -1.073502         3.621266         3.641976
 H         1.695830         3.607178         2.981931
 H         0.810631         2.057987         2.924928
 H        -0.206642         3.230020        -0.436163
