19
Iteration:  2966
 O         0.380474         0.206809         0.437809
 C        -0.671442         1.195325         0.639673
 C        -2.083383         1.253748         0.185318
 C        -1.777132         1.509287         1.801808
 C        -1.358005         3.069353         1.615228
 C        -0.561838         3.596529         2.807820
 C         0.865608         3.886366         2.344507
 O         1.068324         2.800617         1.451490
 C        -0.083852         2.634188         0.661588
 H         1.090343         0.511022         0.995377
 H        -2.432755         2.066134        -0.577346
 H        -2.369016         0.226787        -0.113728
 H        -2.171279         0.952062         2.590796
 H        -2.102234         3.679650         1.119481
 H        -1.103320         4.400907         3.317188
 H        -0.479941         2.749684         3.471314
 H         1.030461         4.920480         1.953097
 H         1.373803         3.677804         3.289408
 H         0.174070         3.047066        -0.308904
