19
Iteration:   389charge 0 multiplicity 1
 O         0.328170         0.237391         0.627556
 C        -0.597682         1.297634         0.664950
 C        -2.069033         1.086197         0.335377
 C        -1.773249         1.670993         1.692193
 C        -1.317459         3.120037         1.491742
 C        -0.615469         3.548790         2.849110
 C         0.880683         3.497635         2.528907
 O         1.109437         2.923729         1.217792
 C        -0.181313         2.735727         0.503280
 H         1.208994         0.781938         0.977261
 H        -2.439623         1.838056        -0.488222
 H        -2.354046         0.057768         0.193695
 H        -2.056926         1.206331         2.605417
 H        -2.020945         3.956995         1.216533
 H        -0.967189         4.637135         2.993879
 H        -0.911059         2.776873         3.639045
 H         1.126345         4.553943         2.513666
 H         1.751688         3.033435         3.154008
 H        -0.108030         3.187151        -0.485541
