19
Iteration:  1758charge 0 multiplicity 1
 O         0.426036         0.386772         0.516728
 C        -0.541401         1.298915         0.679608
 C        -1.975266         1.039376         0.417309
 C        -1.699483         1.628654         1.763741
 C        -1.403398         3.158511         1.581380
 C        -0.659666         3.872401         2.676972
 C         0.756214         3.159914         2.537213
 O         1.077550         2.862555         1.187342
 C        -0.209517         2.745412         0.607274
 H         1.217168         0.876928         0.666515
 H        -2.549366         1.367268        -0.476879
 H        -2.007851        -0.075650         0.369953
 H        -2.049734         1.215965         2.706028
 H        -2.206546         3.810912         1.144979
 H        -0.702278         4.934129         2.526344
 H        -1.009218         3.644686         3.627924
 H         1.584833         3.891745         2.828790
 H         0.715269         2.295404         3.214696
 H        -0.107402         3.309510        -0.404715
