19
Iteration:  4093charge 0 multiplicity 1
 O         0.382992         0.161271         0.474941
 C        -0.640671         1.224996         0.599453
 C        -2.031744         1.108788         0.241697
 C        -1.719685         1.668224         1.614684
 C        -1.308298         3.089766         1.643373
 C        -0.601332         3.531699         2.992030
 C         0.758491         3.836897         2.416230
 O         1.086138         2.789557         1.346174
 C        -0.120778         2.732329         0.567704
 H         0.843758         0.294667         1.358841
 H        -2.284450         1.855960        -0.580125
 H        -2.568035         0.176123         0.092345
 H        -2.183789         1.143308         2.483151
 H        -2.188444         3.789922         1.333339
 H        -0.938732         4.501433         3.438216
 H        -0.394649         2.762455         3.705211
 H         0.740215         4.823612         1.961579
 H         1.548582         3.951469         3.156549
 H         0.041111         3.260245        -0.359249
