19
Iteration:  1680
 O         0.264887         0.114790         0.570464
 C        -0.454513         1.231438         0.746388
 C        -1.870349         1.143836         0.350444
 C        -1.732318         1.663257         1.736211
 C        -1.376068         3.112134         1.488095
 C        -0.640464         3.676723         2.768743
 C         0.868018         3.301515         2.504749
 O         0.944617         3.252055         1.146120
 C        -0.160062         2.677432         0.648301
 H         1.265152         0.239503         0.811849
 H        -2.401012         1.750313        -0.335491
 H        -2.249023         0.032698         0.270539
 H        -2.180412         1.150020         2.678759
 H        -2.015977         3.842202         0.906908
 H        -0.690911         4.759640         2.707673
 H        -1.061673         3.425992         3.690261
 H         1.612589         4.006435         2.979900
 H         1.007756         2.312185         2.998806
 H        -0.103879         3.040533        -0.459143
