19
Iteration:  1660
 O         0.331965         0.037174         0.557803
 C        -0.569121         1.176130         0.752849
 C        -2.044397         0.981377         0.306922
 C        -1.744801         1.680250         1.689615
 C        -1.300937         3.097701         1.595464
 C        -0.595196         3.769044         2.784258
 C         0.828598         3.290462         2.600027
 O         1.077308         3.387910         1.123789
 C        -0.163266         2.784261         0.523353
 H         1.095495         0.278309         1.140156
 H        -2.340070         1.436922        -0.639087
 H        -2.342902        -0.209087         0.256513
 H        -2.326871         1.129989         2.527475
 H        -2.110718         3.736220         1.318514
 H        -0.529924         4.835078         2.801563
 H        -1.055446         3.468386         3.660097
 H         1.564949         3.921365         3.262709
 H         0.884688         2.191271         2.927663
 H        -0.165989         3.169668        -0.563981
