19
Iteration:  3853charge 0 multiplicity 1
 O         0.292339         0.159349         0.504702
 C        -0.557284         1.225214         0.506652
 C        -2.078546         1.179569         0.186245
 C        -1.700782         1.479322         1.596425
 C        -1.357441         3.017787         1.650330
 C        -0.611711         3.655597         2.946295
 C         0.830242         3.836379         2.434386
 O         1.108426         2.845468         1.431090
 C        -0.127773         2.725831         0.621340
 H         1.126351         0.372920         0.983456
 H        -2.866921         1.923866        -0.261716
 H        -2.258169         0.046885         0.259145
 H        -2.014122         0.953129         2.466013
 H        -2.105749         3.719577         1.320409
 H        -0.835830         4.731667         3.129387
 H        -0.560592         3.051142         3.803714
 H         0.808436         4.767842         1.858031
 H         1.633015         3.668965         3.102487
 H         0.050750         3.336090        -0.300595
