19
Iteration:  4298charge 0 multiplicity 1
 O         0.220756        -0.005211         0.589962
 C        -0.549064         1.250940         0.633577
 C        -2.009587         1.225509         0.146800
 C        -1.707070         1.590904         1.501945
 C        -1.332592         3.076976         1.790626
 C        -0.569538         3.450992         2.994805
 C         0.831245         3.911171         2.326275
 O         1.094314         2.989822         1.322418
 C        -0.133804         2.700683         0.670619
 H         1.076578         0.146355         0.148994
 H        -2.234261         1.856059        -0.639300
 H        -2.274454         0.178434         0.138199
 H        -2.351829         0.999700         2.211767
 H        -2.103348         3.731668         1.455763
 H        -1.182243         4.304852         3.461832
 H        -0.289089         2.593946         3.692308
 H         0.561958         4.946817         1.972066
 H         1.683490         3.852716         3.103593
 H        -0.132826         3.239884        -0.278643
