19
Iteration:  1934charge 0 multiplicity 1
 O         0.336987         0.277409         0.578741
 C        -0.573633         1.283957         0.680304
 C        -2.054616         1.011885         0.306773
 C        -1.733932         1.616802         1.735498
 C        -1.280417         3.088692         1.514970
 C        -0.655779         3.634949         2.788573
 C         0.902517         3.322184         2.572623
 O         1.046443         3.195375         1.186961
 C        -0.139359         2.691473         0.511553
 H         1.030572         0.506279         1.342607
 H        -2.607082         1.683866        -0.318103
 H        -2.396086        -0.073992         0.177914
 H        -1.972978         1.265032         2.801340
 H        -2.064393         3.859297         1.129788
 H        -0.977267         4.715926         2.909864
 H        -1.108841         3.029431         3.561777
 H         1.638368         4.150226         2.785271
 H         1.125104         2.456733         3.193406
 H        -0.226261         3.148733        -0.532951
