19
Iteration:  1810charge 0 multiplicity 1
 O         0.251039         0.175272         0.557502
 C        -0.509416         1.328679         0.618147
 C        -1.937192         0.965024         0.459498
 C        -1.587608         1.608704         1.698701
 C        -1.286800         3.112440         1.543152
 C        -0.650665         3.842751         2.673395
 C         0.725080         3.146732         2.666767
 O         1.075987         3.123817         1.163743
 C        -0.215340         2.899239         0.528981
 H         1.116489         0.452618         0.862586
 H        -2.674113         1.488478        -0.078441
 H        -2.046391        -0.162359         0.218776
 H        -1.760614         1.043672         2.691161
 H        -2.154547         3.694447         1.042438
 H        -0.693947         5.004101         2.473023
 H        -1.147914         3.581297         3.701203
 H         1.483377         3.747764         3.197504
 H         0.618228         2.161175         3.124808
 H        -0.277271         3.465223        -0.410039
