19
Iteration:  2270charge 0 multiplicity 1
 O         0.282166         0.049028         0.501098
 C        -0.539509         1.275610         0.631527
 C        -2.025444         1.058976         0.508727
 C        -1.564003         1.601523         1.782127
 C        -1.371002         3.100937         1.475196
 C        -0.660606         3.716424         2.667944
 C         0.696624         3.135586         2.590949
 O         1.052258         3.333009         1.240713
 C        -0.051530         2.902370         0.524696
 H         1.207349         0.302371         0.827806
 H        -2.608429         1.677968        -0.306296
 H        -2.250315        -0.034408         0.354851
 H        -1.692796         1.198680         2.790202
 H        -2.151064         3.742584         1.094325
 H        -0.623093         4.785182         2.661825
 H        -1.152306         3.502585         3.580084
 H         1.428541         3.773382         3.181027
 H         0.804354         2.117414         2.923320
 H         0.021478         3.430288        -0.521518
