19
Iteration:  1241
 O         0.218951         0.313466         0.697772
 C        -0.581911         1.368571         0.643482
 C        -1.943306         1.013382         0.254538
 C        -1.705760         1.502465         1.688754
 C        -1.339486         2.962478         1.580840
 C        -0.569160         3.750947         2.697878
 C         0.825716         3.256754         2.618028
 O         1.076202         3.173712         1.150112
 C        -0.149930         2.823671         0.540191
 H         0.925409         0.503414         1.282683
 H        -2.632958         1.580363        -0.490660
 H        -2.149059        -0.056625         0.242678
 H        -1.733510         0.969081         2.618267
 H        -2.113974         3.635545         1.383565
 H        -0.497826         4.786473         2.484972
 H        -1.090346         3.687606         3.663217
 H         1.730623         3.755726         3.000466
 H         0.782397         2.180020         3.023613
 H        -0.228950         3.133905        -0.430662
