19
Iteration:   792
 O         0.228409         0.148470         0.496976
 C        -0.568667         1.234944         0.667790
 C        -1.971425         1.196991         0.300863
 C        -1.643480         1.526403         1.759327
 C        -1.339163         3.010189         1.549771
 C        -0.630739         3.877816         2.734137
 C         0.799829         3.418637         2.614271
 O         1.060708         3.026592         1.249556
 C        -0.098480         2.716463         0.549277
 H         1.077289         0.432468         1.051498
 H        -2.449710         1.884385        -0.246793
 H        -2.129772         0.217483         0.007165
 H        -1.938120         0.980380         2.621802
 H        -2.245713         3.586667         1.289970
 H        -0.749851         4.888251         2.536410
 H        -1.059312         3.609989         3.721466
 H         1.529081         4.230367         2.854714
 H         1.033030         2.526987         3.229851
 H        -0.118880         3.160186        -0.487115
