19
Iteration:  3268charge 0 multiplicity 1
 O         0.337935         0.235400         0.462891
 C        -0.605503         1.219533         0.686407
 C        -1.935497         1.128435         0.202063
 C        -1.767227         1.618874         1.697808
 C        -1.309167         3.103985         1.554444
 C        -0.592797         3.555494         2.853815
 C         0.856190         3.741754         2.416010
 O         1.036740         2.834899         1.392365
 C        -0.210550         2.726667         0.625440
 H         1.044622         0.321387         1.167331
 H        -2.326494         1.772860        -0.552705
 H        -2.461088         0.120480         0.409587
 H        -2.040735         1.055937         2.590790
 H        -2.021023         3.771718         1.042506
 H        -0.889480         4.524855         3.106215
 H        -0.622091         2.852504         3.685378
 H         0.986545         4.765459         2.125040
 H         1.457575         3.410210         3.324336
 H        -0.198191         3.234630        -0.383638
