19
Iteration:  1565
 O         0.363130         0.326895         0.537272
 C        -0.558220         1.284566         0.693534
 C        -1.945192         0.922010         0.383082
 C        -1.764247         1.644893         1.667161
 C        -1.407004         3.173576         1.535947
 C        -0.589958         3.795679         2.673434
 C         0.851803         3.157376         2.640979
 O         1.063165         3.081502         1.199767
 C        -0.236630         2.797336         0.585874
 H         1.143027         0.662343         1.035832
 H        -2.381595         1.169132        -0.542444
 H        -2.256130        -0.130880         0.682959
 H        -1.964481         1.105763         2.648639
 H        -2.238625         3.823632         1.117157
 H        -0.479027         4.901525         2.442932
 H        -1.192335         3.736410         3.671927
 H         1.716519         3.652346         3.090836
 H         0.993292         2.121327         2.908062
 H        -0.218746         3.226580        -0.380752
