19
Iteration:   875charge 0 multiplicity 1
 O         0.376104         0.318822         0.699829
 C        -0.635194         1.265640         0.561599
 C        -2.046972         1.063495         0.342623
 C        -1.646616         1.631941         1.656630
 C        -1.328576         3.123710         1.537115
 C        -0.601918         3.794509         2.738451
 C         0.791800         3.226684         2.626457
 O         1.059485         2.980351         1.203648
 C        -0.185612         2.722855         0.484739
 H         1.188157         0.869684         1.030811
 H        -2.665743         1.833833        -0.326560
 H        -2.277309        -0.052525         0.363310
 H        -1.644132         1.011047         2.549990
 H        -2.123189         3.821458         1.210907
 H        -0.702106         4.953294         2.626941
 H        -1.115736         3.505023         3.665447
 H         1.604923         3.858201         2.984380
 H         0.942463         2.268920         3.126612
 H        -0.189563         3.296697        -0.429357
