19
Iteration:  1556
 O         0.378702         0.268019         0.564046
 C        -0.581857         1.350484         0.635734
 C        -1.945552         0.986196         0.402566
 C        -1.669970         1.633433         1.738891
 C        -1.396263         3.142085         1.524375
 C        -0.646138         3.818824         2.699739
 C         0.797206         3.145151         2.586850
 O         1.072167         3.083261         1.175307
 C        -0.220500         2.793760         0.539021
 H         1.034826         0.431515         1.272175
 H        -2.490252         1.387832        -0.452053
 H        -1.968488        -0.067226         0.530569
 H        -1.817584         0.987360         2.608184
 H        -2.216821         3.914099         1.217619
 H        -0.550144         4.912012         2.571885
 H        -1.010686         3.589972         3.767702
 H         1.650784         3.542611         3.115006
 H         0.480817         2.141960         3.126223
 H        -0.218258         3.208623        -0.489318
