19
Iteration:  2173
 O         0.453477         0.320363         0.641902
 C        -0.576798         1.303760         0.602724
 C        -2.000323         1.073926         0.306715
 C        -1.611811         1.655657         1.691440
 C        -1.452400         3.162207         1.566802
 C        -0.602946         3.691179         2.795207
 C         0.858793         3.319680         2.597371
 O         0.963237         2.869175         1.165821
 C        -0.248640         2.798754         0.523758
 H         1.196968         0.794325         0.937482
 H        -2.363249         1.632251        -0.563732
 H        -2.330294        -0.033855         0.286942
 H        -1.839330         1.026691         2.623369
 H        -2.318854         3.710940         1.197116
 H        -0.859741         4.814137         2.929811
 H        -1.014557         3.305878         3.729035
 H         1.657400         4.095775         2.849461
 H         1.195526         2.427433         3.185341
 H        -0.232486         3.231143        -0.477797
