19
Iteration:  4422
 O         0.337793         0.188444         0.496593
 C        -0.583555         1.205188         0.557527
 C        -1.995704         1.186473         0.266971
 C        -1.673135         1.520241         1.668275
 C        -1.357162         3.066577         1.601270
 C        -0.588782         3.660653         2.952437
 C         0.786212         3.791297         2.490357
 O         1.045889         2.833807         1.342484
 C        -0.144352         2.665977         0.616361
 H         0.966264         0.397618        -0.236009
 H        -2.331979         1.898537        -0.551685
 H        -2.301311         0.105459         0.036190
 H        -2.336527         1.170677         2.503182
 H        -2.198505         3.720155         1.302160
 H        -1.028035         4.668749         3.338794
 H        -0.627828         2.845436         3.732128
 H         1.091735         4.869005         2.280961
 H         1.453773         3.667509         3.330398
 H         0.002878         3.229726        -0.361139
