19
Iteration:  2747
 O         0.131972         0.043154         0.533856
 C        -0.532680         1.258155         0.635695
 C        -1.978829         1.179036         0.192648
 C        -1.679943         1.522900         1.574695
 C        -1.312639         3.025581         1.682899
 C        -0.582868         3.517535         2.893974
 C         0.788132         3.893367         2.383437
 O         1.123504         2.967214         1.363459
 C        -0.121886         2.770080         0.635623
 H         0.927494        -0.147737         1.139170
 H        -2.391385         2.015799        -0.468804
 H        -2.339314         0.068473        -0.047012
 H        -1.968015         0.804420         2.516927
 H        -1.957897         3.833622         1.296452
 H        -1.047466         4.409686         3.305104
 H        -0.521323         2.781861         3.679009
 H         0.929804         5.052249         2.048688
 H         1.568897         3.760250         3.171223
 H        -0.093064         3.345831        -0.352443
