19
Iteration:  4048
 O         0.202854         0.115409         0.597106
 C        -0.618124         1.219564         0.585443
 C        -1.979994         1.182091         0.075290
 C        -1.718555         1.502238         1.632266
 C        -1.421058         2.947972         1.653827
 C        -0.554311         3.529840         2.952936
 C         0.896382         3.925805         2.384486
 O         1.162513         2.969463         1.354994
 C        -0.110777         2.715662         0.630803
 H         1.026981         0.223294         1.164591
 H        -2.407254         2.000353        -0.529056
 H        -2.584472         0.306314         0.014626
 H        -2.242789         1.055861         2.456446
 H        -2.233568         3.741288         1.406900
 H        -1.133372         4.371468         3.460740
 H        -0.546191         2.631825         3.576723
 H         0.881000         4.933840         2.118514
 H         1.775428         3.970262         3.069608
 H        -0.150858         3.217034        -0.320402
