19
Iteration:  2743
 O         0.112791         0.033954         0.521283
 C        -0.538294         1.259435         0.637593
 C        -1.954326         1.176190         0.200369
 C        -1.649099         1.511036         1.615570
 C        -1.299867         3.045119         1.669609
 C        -0.600219         3.529296         2.855762
 C         0.800754         3.902987         2.402823
 O         1.086850         2.966604         1.361130
 C        -0.087457         2.760611         0.635148
 H         0.835647         0.004201         1.134596
 H        -2.329716         1.995565        -0.408954
 H        -2.395493         0.235270        -0.036297
 H        -1.974027         0.742236         2.324630
 H        -2.079520         3.770431         1.343964
 H        -0.968042         4.390256         3.420420
 H        -0.484821         2.721180         3.572935
 H         0.800775         4.961298         2.049978
 H         1.556138         3.785384         3.210862
 H        -0.065610         3.259607        -0.300601
