19
Iteration:  2654charge 0 multiplicity 1
 O         0.378924         0.229485         0.533906
 C        -0.578691         1.262847         0.502372
 C        -2.040127         1.168443         0.292464
 C        -1.635652         1.604367         1.628770
 C        -1.371023         3.089169         1.655927
 C        -0.630850         3.579614         2.899327
 C         0.855462         3.777566         2.355801
 O         1.048431         2.707613         1.410411
 C        -0.220992         2.706732         0.603747
 H         1.056011         0.578034         1.111778
 H        -2.465245         1.928202        -0.275003
 H        -2.383862         0.151927         0.143460
 H        -2.083870         1.185670         2.458313
 H        -2.205553         3.687548         1.219105
 H        -0.938151         4.627837         3.156497
 H        -0.821550         2.901142         3.751659
 H         1.109577         4.755852         1.819136
 H         1.644295         3.691974         3.144011
 H        -0.135169         3.316120        -0.265065
