19
Iteration:  1638
 O         0.270407         0.181411         0.678962
 C        -0.548397         1.317068         0.613982
 C        -1.967670         0.976544         0.297020
 C        -1.668566         1.584725         1.625712
 C        -1.347152         3.070256         1.578469
 C        -0.603322         3.782286         2.736936
 C         0.872775         3.233993         2.592304
 O         1.027677         3.226914         1.165084
 C        -0.198605         2.816058         0.550185
 H         0.771329         0.382794         1.484037
 H        -2.612784         1.560203        -0.350812
 H        -2.315766        -0.165148         0.393705
 H        -1.693114         0.985661         2.607092
 H        -2.163135         3.666707         1.247400
 H        -0.680481         4.859682         2.705319
 H        -0.887349         3.437278         3.677301
 H         1.723746         3.969686         2.807915
 H         1.089218         2.225564         3.095525
 H        -0.320942         3.281406        -0.481619
