19
Iteration:  1089charge 0 multiplicity 1
 O         0.362761         0.239525         0.490507
 C        -0.581354         1.291846         0.672804
 C        -2.083197         0.935117         0.441122
 C        -1.688341         1.634477         1.707281
 C        -1.297290         3.149354         1.452869
 C        -0.594804         3.863913         2.662038
 C         0.729146         3.132896         2.694757
 O         1.140346         3.151861         1.244014
 C        -0.192550         2.797399         0.544243
 H         1.203979         0.713412         0.787430
 H        -2.612725         1.338943        -0.365666
 H        -2.098185        -0.118463         0.478559
 H        -2.001925         1.196075         2.642580
 H        -2.132793         3.808471         1.258016
 H        -0.591986         4.918423         2.514885
 H        -1.114825         3.584594         3.607031
 H         1.457347         3.567593         3.378187
 H         0.561235         2.095766         2.953587
 H        -0.065125         3.081082        -0.481157
