19
Iteration:  4628charge 0 multiplicity 1
 O         0.309126         0.313003         0.675804
 C        -0.562144         1.356065         0.657630
 C        -1.980266         1.124246         0.138425
 C        -1.770553         1.580104         1.555063
 C        -1.337817         3.046404         1.695379
 C        -0.552914         3.368719         2.966857
 C         0.837981         3.680232         2.360067
 O         1.109061         2.925508         1.189856
 C        -0.238408         2.763278         0.610957
 H         0.906938         0.271975         1.424137
 H        -2.424453         1.698542        -0.705933
 H        -2.248555         0.118053         0.129611
 H        -2.111621         0.886295         2.392025
 H        -2.015196         3.935211         1.478454
 H        -1.015929         4.396610         3.299814
 H        -0.651883         2.557037         3.700882
 H         1.032321         4.767008         2.386336
 H         1.522933         3.302852         3.263376
 H        -0.284074         3.319936        -0.404033
