19
Iteration:  4723charge 0 multiplicity 1
 O         0.280190         0.131434         0.348678
 C        -0.580061         1.209667         0.512339
 C        -2.016870         1.169246         0.199266
 C        -1.615790         1.490844         1.623378
 C        -1.296041         3.039037         1.646113
 C        -0.629274         3.611854         2.989793
 C         0.849003         3.928999         2.399562
 O         1.041508         2.855055         1.491549
 C        -0.174072         2.718758         0.686133
 H         0.614206        -0.129965         1.254326
 H        -2.389450         2.018664        -0.396624
 H        -2.445567         0.255371        -0.051875
 H        -2.054149         0.885386         2.562879
 H        -2.027292         3.758357         1.237820
 H        -1.083500         4.485901         3.361510
 H        -0.396648         2.952818         3.808861
 H         0.821173         4.898095         1.910065
 H         1.687052         3.927808         3.105667
 H        -0.164106         3.230166        -0.284685
