19
Iteration:  4626
 O         0.309906         0.310146         0.673522
 C        -0.570344         1.345860         0.643811
 C        -1.987122         1.116240         0.148081
 C        -1.788357         1.598641         1.558961
 C        -1.349645         3.037333         1.691035
 C        -0.561834         3.376031         2.984348
 C         0.858987         3.686063         2.376234
 O         1.120217         2.933362         1.188350
 C        -0.220812         2.761824         0.585774
 H         0.968388         0.280895         1.409782
 H        -2.328063         1.699261        -0.677794
 H        -2.273759         0.106666         0.082136
 H        -2.179647         0.823372         2.384834
 H        -2.086583         3.915521         1.522565
 H        -0.993801         4.332458         3.277878
 H        -0.624652         2.604043         3.692464
 H         1.010833         4.792485         2.392726
 H         1.543461         3.327135         3.278915
 H        -0.336358         3.257301        -0.384782
