19
Iteration:  4713charge 0 multiplicity 1
 O         0.286823         0.144863         0.336909
 C        -0.570732         1.209476         0.629656
 C        -2.032634         1.197338         0.157832
 C        -1.632819         1.551338         1.644116
 C        -1.318718         3.053696         1.726201
 C        -0.585825         3.585367         2.896681
 C         0.795846         3.915813         2.392849
 O         1.002583         2.865778         1.438063
 C        -0.106342         2.677982         0.712857
 H         0.906042        -0.058575         1.093920
 H        -2.269355         1.855463        -0.672917
 H        -2.398930         0.237192         0.139795
 H        -2.084636         0.879695         2.565359
 H        -2.146316         3.671929         1.266352
 H        -1.056488         4.409386         3.403767
 H        -0.592467         2.711912         3.536519
 H         0.928169         4.927237         1.993685
 H         1.635903         3.714340         3.152439
 H         0.010840         3.281291        -0.169722
