19
Iteration:  4076charge 0 multiplicity 1
 O         0.293235         0.221727         0.549213
 C        -0.582414         1.263518         0.610868
 C        -1.998564         1.177042         0.146141
 C        -1.692182         1.564256         1.594337
 C        -1.259358         3.055822         1.646542
 C        -0.569756         3.507576         2.918286
 C         0.846450         3.820117         2.320514
 O         1.028800         2.872789         1.386853
 C        -0.171248         2.706338         0.698941
 H         0.605069        -0.200585         1.380422
 H        -2.562028         1.785354        -0.556955
 H        -2.242513         0.074687         0.264659
 H        -2.128947         0.907176         2.375337
 H        -1.890031         3.839629         1.355709
 H        -1.177995         4.293532         3.341223
 H        -0.765765         2.731565         3.714971
 H         0.758769         4.940034         1.921375
 H         1.771572         3.846483         2.939486
 H        -0.241127         3.228633        -0.308226
