19
Iteration:   629
 O         0.360932         0.176198         0.610891
 C        -0.535575         1.250948         0.708203
 C        -2.021369         1.132810         0.384833
 C        -1.636724         1.664625         1.712432
 C        -1.320813         3.158260         1.475621
 C        -0.620009         3.806409         2.807562
 C         0.723022         3.111763         2.633622
 O         1.015374         3.186548         1.130141
 C        -0.161183         2.740241         0.432343
 H         1.223563         0.391926         1.033238
 H        -2.540420         1.747095        -0.430692
 H        -2.321284         0.018193         0.490997
 H        -1.904688         1.056579         2.642786
 H        -2.048259         3.820441         1.035763
 H        -0.552492         4.846322         2.956629
 H        -1.091476         3.311139         3.695621
 H         1.594601         3.646225         3.108048
 H         0.727058         2.076456         2.997393
 H        -0.086306         3.010509        -0.615391
