19
Iteration:  4227
 O         0.294027         0.170997         0.599718
 C        -0.527543         1.234027         0.621938
 C        -2.041245         1.150140         0.196419
 C        -1.678977         1.618830         1.537560
 C        -1.287297         3.107473         1.626235
 C        -0.566299         3.470740         3.035741
 C         0.828924         3.865996         2.445435
 O         0.975042         2.929977         1.335133
 C        -0.120940         2.659839         0.614901
 H         0.281035        -0.269090        -0.270708
 H        -2.396662         1.889059        -0.664123
 H        -2.266569         0.068062         0.137490
 H        -2.073051         1.082327         2.371582
 H        -2.063208         3.908118         1.254984
 H        -0.971862         4.334034         3.493922
 H        -0.360211         2.605701         3.699731
 H         0.831537         4.953142         2.045213
 H         1.644258         3.613320         3.091724
 H        -0.059029         3.011840        -0.411759
