19
Iteration:   521
 O         0.337833         0.333192         0.506473
 C        -0.645622         1.293863         0.632863
 C        -2.033639         0.957692         0.339810
 C        -1.682711         1.612559         1.666832
 C        -1.320203         3.126284         1.586431
 C        -0.617445         3.885467         2.695222
 C         0.891909         3.365834         2.641226
 O         1.134500         2.820270         1.256614
 C        -0.259064         2.794300         0.574839
 H         1.047501         0.695912         0.973909
 H        -2.612954         1.309043        -0.594195
 H        -2.151429        -0.171080         0.482633
 H        -2.076003         1.027654         2.548465
 H        -2.093109         3.726468         1.156973
 H        -0.761306         5.022878         2.611168
 H        -1.068700         3.617384         3.729522
 H         1.642459         4.062589         2.852062
 H         0.910974         2.444679         3.269089
 H        -0.239854         3.474430        -0.258085
