19
Iteration:  1528
 O         0.363685         0.200742         0.619490
 C        -0.530875         1.272547         0.602789
 C        -2.044819         1.143524         0.434975
 C        -1.435947         1.604084         1.745883
 C        -1.353247         3.099178         1.464024
 C        -0.718120         3.741154         2.685767
 C         0.768431         3.118386         2.631216
 O         0.987713         3.180256         1.190132
 C        -0.205437         2.785528         0.482120
 H         1.083582         0.349612         1.335531
 H        -2.356052         1.998334        -0.261643
 H        -2.624025         0.241054         0.530546
 H        -1.490642         0.969510         2.588401
 H        -2.215790         3.595296         1.166161
 H        -0.515099         4.804627         2.530075
 H        -1.261710         3.627981         3.573928
 H         1.535310         3.796339         3.068601
 H         0.740239         2.206522         3.120736
 H        -0.127398         3.245279        -0.541678
