19
Iteration:  1388charge 0 multiplicity 1
 O         0.356588         0.237264         0.435601
 C        -0.560853         1.183434         0.787731
 C        -2.050414         0.975185         0.307714
 C        -1.818652         1.630964         1.698952
 C        -1.272794         3.124771         1.490976
 C        -0.599659         3.818154         2.789478
 C         0.900669         3.377660         2.613675
 O         1.030234         3.145684         1.253233
 C        -0.182514         2.669760         0.569246
 H         1.174082         0.275103         0.994240
 H        -2.573698         1.511500        -0.484198
 H        -2.290416        -0.004246         0.387869
 H        -2.105977         1.230186         2.604943
 H        -2.186862         3.676561         1.050751
 H        -0.719437         4.966251         2.615753
 H        -1.145963         3.521778         3.723255
 H         1.739353         4.077864         2.873669
 H         1.033457         2.380860         3.173784
 H         0.046638         2.982734        -0.426337
