19
Iteration:   281charge 0 multiplicity 1
 O         0.088988         0.071844         0.378693
 C        -0.629607         1.166848         0.719215
 C        -1.940176         1.119410         0.172530
 C        -1.786649         1.565811         1.678544
 C        -1.328539         3.010432         1.662711
 C        -0.573675         3.598871         2.887907
 C         0.860598         3.980343         2.332770
 O         1.233141         2.942464         1.389265
 C        -0.067652         2.670598         0.752749
 H         0.843613        -0.121945         1.088323
 H        -2.223293         1.843845        -0.660914
 H        -2.408768         0.094160         0.133908
 H        -2.374910         1.204456         2.463631
 H        -1.915559         3.847655         1.059593
 H        -1.173224         4.436629         3.339480
 H        -0.557908         2.900935         3.773830
 H         0.790712         5.006879         1.793106
 H         1.679476         4.075191         3.150106
 H        -0.074316         3.221632        -0.271467
