19
Iteration:  1777charge 0 multiplicity 1
 O         0.476910         0.312879         0.461942
 C        -0.567491         1.247562         0.689795
 C        -2.032392         1.044674         0.496586
 C        -1.618578         1.697088         1.765220
 C        -1.336272         3.150466         1.500310
 C        -0.613183         3.811198         2.643521
 C         0.738559         3.101145         2.674540
 O         0.998819         3.058868         1.224957
 C        -0.201141         2.728262         0.479569
 H         1.251000         0.732298         0.841066
 H        -2.470515         1.750355        -0.150959
 H        -2.537306        -0.004266         0.460077
 H        -1.934657         1.204010         2.774123
 H        -2.249194         3.614962         0.989544
 H        -0.532147         4.936265         2.393607
 H        -1.266797         3.736181         3.587574
 H         1.448499         3.705787         3.236391
 H         0.645237         2.104406         3.080191
 H        -0.242709         3.010828        -0.569113
