19
Iteration:  2751
 O         0.165470         0.049340         0.545363
 C        -0.529734         1.256375         0.631090
 C        -2.019945         1.168760         0.156835
 C        -1.723816         1.530803         1.574395
 C        -1.321023         3.001803         1.676418
 C        -0.562188         3.515439         2.944489
 C         0.798337         3.901933         2.369729
 O         1.156914         2.969580         1.360213
 C        -0.153122         2.768609         0.635991
 H         0.884084        -0.161573         1.096163
 H        -2.432626         1.885800        -0.483658
 H        -2.185234         0.172816         0.000685
 H        -1.904976         1.116665         2.475078
 H        -1.911614         3.824143         1.248962
 H        -1.186884         4.446993         3.217946
 H        -0.545563         2.777097         3.855043
 H         0.987548         4.879144         2.078497
 H         1.559070         3.749150         3.104448
 H        -0.136384         3.371695        -0.316531
