19
Iteration:  4238charge 0 multiplicity 1
 O         0.297888         0.154726         0.625905
 C        -0.610171         1.243285         0.612529
 C        -1.968998         1.154211         0.165862
 C        -1.707597         1.579736         1.642709
 C        -1.286353         3.064141         1.632602
 C        -0.565663         3.455677         2.969670
 C         0.812064         3.827218         2.394081
 O         1.103440         2.919956         1.356206
 C        -0.166642         2.767753         0.619848
 H         0.294656        -0.204398        -0.255329
 H        -2.358273         1.952886        -0.601080
 H        -2.454927         0.190504        -0.033981
 H        -2.234485         1.039146         2.385317
 H        -2.017118         3.888002         1.273904
 H        -1.042116         4.224826         3.539096
 H        -0.728463         2.559586         3.577387
 H         0.657715         4.870914         1.935497
 H         1.672337         3.962110         2.997951
 H        -0.131077         3.309310        -0.333211
