19
Iteration:  4288
 O         0.237310         0.010480         0.627449
 C        -0.607312         1.175292         0.614249
 C        -2.003979         1.194816         0.056291
 C        -1.689793         1.633750         1.570954
 C        -1.271136         2.992813         1.733192
 C        -0.491247         3.450813         2.973900
 C         0.748821         3.979823         2.386034
 O         1.067669         2.931812         1.323694
 C        -0.151948         2.777773         0.669938
 H         0.938640         0.262896        -0.033180
 H        -2.182082         1.924598        -0.653974
 H        -2.624041         0.314424        -0.038773
 H        -1.981594         1.006853         2.449408
 H        -1.907469         3.805110         1.503565
 H        -1.025611         4.259892         3.595128
 H        -0.432252         2.736315         3.811940
 H         0.777119         4.976640         1.864192
 H         1.567166         3.928767         3.174138
 H        -0.261188         3.331670        -0.305139
