19
Iteration:   852
 O         0.336840         0.332814         0.602807
 C        -0.617039         1.348192         0.640278
 C        -1.964928         0.943210         0.361745
 C        -1.668072         1.670599         1.622087
 C        -1.419750         3.158769         1.491738
 C        -0.573464         3.745860         2.729295
 C         0.854608         3.267272         2.567742
 O         1.050778         2.791816         1.273320
 C        -0.226873         2.911970         0.542197
 H         0.942573         0.572617         1.252610
 H        -2.582896         1.390557        -0.570441
 H        -1.933731        -0.186416         0.666641
 H        -1.945695         1.314210         2.663221
 H        -2.227339         3.842235         1.151122
 H        -0.606192         4.919653         2.628662
 H        -1.076857         3.487936         3.648742
 H         1.503763         4.113737         2.728106
 H         1.262573         2.511596         3.250336
 H        -0.004662         3.583827        -0.271409
