19
Iteration:  3712charge 0 multiplicity 1
 O         0.345360         0.186360         0.620682
 C        -0.630717         1.178382         0.617609
 C        -2.032593         1.136564         0.163873
 C        -1.824270         1.530410         1.591301
 C        -1.328002         3.075247         1.625979
 C        -0.555965         3.520845         2.846770
 C         0.942020         3.805406         2.500976
 O         1.104291         2.957419         1.296705
 C        -0.198623         2.705199         0.668386
 H         1.149574         0.642955         0.890563
 H        -2.254235         1.999012        -0.582247
 H        -2.430680         0.091442         0.033306
 H        -2.547831         1.180829         2.344898
 H        -2.074619         3.839421         1.219938
 H        -1.081387         4.434575         3.236725
 H        -0.610477         2.596161         3.471788
 H         1.098255         4.848041         2.179349
 H         1.595644         3.458950         3.244474
 H        -0.346856         3.272576        -0.258831
