19
Iteration:  3937charge 0 multiplicity 1
 O         0.288012         0.229040         0.586928
 C        -0.570761         1.283721         0.625406
 C        -2.001294         1.170910         0.201029
 C        -1.785240         1.487134         1.664180
 C        -1.350685         3.044804         1.613526
 C        -0.579438         3.559654         2.868178
 C         0.935043         3.823039         2.420541
 O         1.028455         2.823131         1.344420
 C        -0.186300         2.709569         0.602474
 H         1.158915         0.571069         0.814815
 H        -2.267902         1.832375        -0.568193
 H        -2.272956         0.158114        -0.123485
 H        -2.207082         0.821820         2.427995
 H        -2.077043         3.908837         1.287770
 H        -1.034955         4.412407         3.417577
 H        -0.617921         2.823921         3.707118
 H         1.065598         4.888141         2.068359
 H         1.875487         3.613036         3.096307
 H        -0.076893         3.277677        -0.336845
