19
Iteration:  1740
 O         0.394262         0.381044         0.592103
 C        -0.634519         1.310938         0.636888
 C        -2.002307         0.881354         0.272421
 C        -1.693851         1.619769         1.691567
 C        -1.387614         3.110869         1.562931
 C        -0.542630         3.813096         2.725507
 C         0.881580         3.336733         2.682027
 O         1.029619         2.886025         1.236050
 C        -0.279348         2.792808         0.475618
 H         1.140752         0.857981         0.943044
 H        -2.710378         1.483603        -0.413339
 H        -2.375572        -0.028684         0.529060
 H        -1.828484         1.062953         2.549970
 H        -2.180402         3.773494         1.304842
 H        -0.427473         4.876974         2.464584
 H        -0.996031         3.765601         3.759085
 H         1.714130         4.000708         2.903100
 H         1.038124         2.377977         3.241830
 H        -0.104343         3.266903        -0.467853
