19
Iteration:  1347charge 0 multiplicity 1
 O         0.276135         0.106946         0.669702
 C        -0.513014         1.296724         0.638379
 C        -1.973761         1.110840         0.328196
 C        -1.485622         1.561678         1.656667
 C        -1.379984         3.094366         1.623306
 C        -0.669094         3.904165         2.731767
 C         0.761106         3.162435         2.616159
 O         0.997162         3.146426         1.146912
 C        -0.185772         2.833972         0.512171
 H         1.252585         0.317371         0.817127
 H        -2.386979         1.819881        -0.374862
 H        -2.181046         0.070286         0.278639
 H        -1.505400         0.981926         2.526225
 H        -2.220814         3.711566         1.157418
 H        -0.610979         4.981231         2.622028
 H        -1.112113         3.622943         3.739864
 H         1.652674         3.500411         3.065852
 H         0.520247         2.187375         3.020439
 H        -0.280306         3.286854        -0.566465
