19
Iteration:  4521charge 0 multiplicity 1
 O         0.324070         0.159077         0.562778
 C        -0.590016         1.207709         0.654193
 C        -2.060301         1.177784         0.129285
 C        -1.744267         1.536806         1.500094
 C        -1.289025         3.030400         1.700379
 C        -0.525438         3.516454         2.948749
 C         0.799412         3.919848         2.364070
 O         1.082924         2.907340         1.385962
 C        -0.108920         2.700899         0.754643
 H         0.267576        -0.156818        -0.338205
 H        -2.252100         2.074539        -0.606136
 H        -2.340302         0.169072        -0.151952
 H        -2.075361         0.933907         2.361668
 H        -1.931397         3.848304         1.390400
 H        -1.070643         4.267073         3.636201
 H        -0.600750         2.748398         3.792763
 H         0.482608         4.918052         1.939461
 H         1.579228         4.022713         3.087097
 H        -0.190317         3.124105        -0.264175
