19
Iteration:  2116
 O         0.246535         0.058203         0.466624
 C        -0.445066         1.259129         0.695170
 C        -1.922102         1.082855         0.359625
 C        -1.640505         1.598971         1.703779
 C        -1.349390         3.042770         1.555754
 C        -0.609102         3.823412         2.789490
 C         0.736321         3.231776         2.629323
 O         1.024543         3.291768         1.194217
 C        -0.165106         2.807148         0.580401
 H         1.213926         0.036762         0.756384
 H        -2.487926         1.727227        -0.346391
 H        -2.283110        -0.073330         0.443024
 H        -2.133680         1.166823         2.618123
 H        -2.104276         3.589512         1.009020
 H        -0.518352         4.815463         2.398938
 H        -1.062793         3.773237         3.777588
 H         1.449071         3.941227         3.159352
 H         0.859920         2.169120         2.936125
 H        -0.379669         3.207962        -0.458666
