19
Iteration:  4165
 O         0.282537         0.095801         0.586507
 C        -0.565677         1.208383         0.551682
 C        -2.031477         1.177247         0.232533
 C        -1.599000         1.522500         1.642245
 C        -1.307855         3.046248         1.617331
 C        -0.585780         3.617931         2.878524
 C         0.846794         3.795128         2.519721
 O         1.022802         2.925115         1.355545
 C        -0.204644         2.766694         0.579832
 H         0.906486         0.121832        -0.168577
 H        -2.197650         1.887836        -0.531893
 H        -2.633559         0.343860         0.044938
 H        -2.132195         1.039766         2.405267
 H        -2.133256         3.618471         1.312160
 H        -1.119828         4.561884         3.161418
 H        -0.693723         2.852485         3.705320
 H         1.229622         4.794468         2.407585
 H         1.592119         3.496604         3.316814
 H        -0.180884         3.427322        -0.347696
