19
Iteration:  4438charge 0 multiplicity 1
 O         0.259131         0.115307         0.489942
 C        -0.544111         1.308954         0.646945
 C        -1.976252         1.116531         0.195882
 C        -1.688082         1.551068         1.671738
 C        -1.329272         3.037135         1.626531
 C        -0.667699         3.583967         2.843213
 C         0.880324         3.817642         2.444922
 O         1.060971         2.897239         1.450666
 C        -0.150799         2.785322         0.642215
 H         0.718493         0.008818        -0.384454
 H        -2.556582         1.921866        -0.282704
 H        -2.293232         0.124629         0.035794
 H        -1.676992         0.849785         2.466063
 H        -2.107863         3.722320         1.206555
 H        -1.179068         4.429731         3.179036
 H        -0.689240         2.792381         3.570542
 H         1.067956         4.820146         2.071992
 H         1.629691         3.504575         3.225685
 H        -0.173739         3.310881        -0.351036
