19
Iteration:   136charge 0 multiplicity 1
 O         0.224857         0.126686         0.567755
 C        -0.506650         1.306877         0.618595
 C        -2.033049         1.109350         0.382752
 C        -1.660662         1.549987         1.693304
 C        -1.337480         3.059980         1.573171
 C        -0.633815         3.739048         2.751625
 C         0.866019         3.367075         2.627483
 O         1.070438         3.209500         1.160329
 C        -0.102206         2.713865         0.500434
 H         0.414679        -0.165523         1.513299
 H        -2.561264         1.839753        -0.201867
 H        -2.293444         0.131239         0.179774
 H        -1.838094         1.013381         2.692056
 H        -2.231160         3.652816         1.140490
 H        -0.782307         4.787050         2.710647
 H        -1.008725         3.299776         3.661919
 H         1.510679         4.333637         2.852501
 H         1.194438         2.467271         3.175217
 H        -0.082474         3.211964        -0.517725
