19
Iteration:  4908
 O         0.309374         0.174507         0.528927
 C        -0.576981         1.250111         0.602103
 C        -1.998867         1.113520         0.249867
 C        -1.735843         1.689096         1.600630
 C        -1.315568         3.105315         1.603099
 C        -0.570680         3.386797         2.966881
 C         0.818410         3.730889         2.516366
 O         1.064425         2.995709         1.244122
 C        -0.177329         2.717032         0.606367
 H         1.092748         0.462362         1.015425
 H        -2.440707         1.558856        -0.653339
 H        -2.361940         0.050625         0.388460
 H        -2.156064         1.025181         2.463062
 H        -2.032445         3.890763         1.359645
 H        -0.902189         4.315941         3.356798
 H        -0.694557         2.452992         3.626465
 H         0.800830         4.925968         2.315709
 H         1.726179         3.529293         3.006901
 H        -0.179979         3.247270        -0.362125
