19
Iteration:  1634charge 0 multiplicity 1
 O         0.276704         0.198755         0.693719
 C        -0.522075         1.361000         0.602610
 C        -1.962888         1.005684         0.327343
 C        -1.677012         1.598095         1.637337
 C        -1.342723         3.028935         1.587699
 C        -0.590282         3.769581         2.722403
 C         0.882553         3.243172         2.590025
 O         0.998343         3.180355         1.152532
 C        -0.217898         2.793366         0.511932
 H         0.823084         0.372641         1.534665
 H        -2.597732         1.584785        -0.360350
 H        -2.177182         0.015821         0.318520
 H        -1.643375         1.004475         2.499559
 H        -2.255446         3.670266         1.275517
 H        -0.649879         4.863805         2.750654
 H        -1.012941         3.385067         3.699517
 H         1.636992         3.936651         2.914718
 H         1.041765         2.309965         3.179004
 H        -0.253645         3.298836        -0.479128
