19
Iteration:   745
 O         0.283999         0.090958         0.573262
 C        -0.527792         1.260208         0.653560
 C        -2.076402         1.080580         0.350171
 C        -1.672641         1.614144         1.689583
 C        -1.320076         3.098096         1.554701
 C        -0.591589         3.749112         2.752080
 C         0.807337         3.208524         2.638260
 O         1.056452         3.328641         1.209173
 C        -0.120257         2.730687         0.498300
 H         1.103281         0.149497         1.179131
 H        -2.571305         1.797707        -0.370812
 H        -2.447259        -0.003055         0.340965
 H        -2.211858         1.181720         2.592817
 H        -1.866139         3.946495         1.086619
 H        -0.694705         4.892353         2.520685
 H        -1.182523         3.466086         3.616471
 H         1.569173         3.889639         3.152516
 H         0.945589         2.168542         2.959555
 H         0.076372         3.007520        -0.606777
