19
Iteration:  2777
 O         0.288546         0.233976         0.565645
 C        -0.634706         1.165819         0.630896
 C        -2.024066         1.094522         0.135300
 C        -1.809261         1.560734         1.563332
 C        -1.316965         3.108011         1.710793
 C        -0.504674         3.518540         2.908399
 C         0.830753         3.857650         2.420421
 O         1.096818         2.928727         1.343557
 C        -0.150446         2.667582         0.632004
 H         1.085820         0.316200         1.057967
 H        -2.278241         1.829082        -0.661857
 H        -2.565105         0.086860         0.246020
 H        -2.408888         0.954803         2.367159
 H        -1.775350         3.965033         1.207055
 H        -0.903656         4.371975         3.423376
 H        -0.545446         2.671943         3.527158
 H         1.038434         4.857214         2.111894
 H         1.703053         3.655241         3.119672
 H        -0.056640         3.107296        -0.324721
