19
Iteration:   603charge 0 multiplicity 1
 O         0.186348         0.143366         0.497893
 C        -0.575919         1.257016         0.653112
 C        -2.009882         0.951005         0.389416
 C        -1.642444         1.612158         1.712204
 C        -1.340553         3.108925         1.490841
 C        -0.626943         3.750671         2.636404
 C         0.837562         3.259657         2.668569
 O         1.134067         3.233294         1.242692
 C        -0.117976         2.851825         0.591715
 H         0.868019         0.063194         1.111532
 H        -2.566552         1.563702        -0.231142
 H        -2.230044        -0.056510         0.529256
 H        -2.021978         1.130121         2.623699
 H        -2.045514         3.855642         0.942575
 H        -0.625737         4.850634         2.574209
 H        -1.047865         3.425351         3.547733
 H         1.514541         4.037619         3.187913
 H         1.054476         2.312113         3.203438
 H        -0.161748         3.401536        -0.420500
