19
Iteration:  4245charge 0 multiplicity 1
 O         0.301838         0.143077         0.639062
 C        -0.626842         1.290231         0.653468
 C        -1.976162         1.183809         0.103408
 C        -1.762241         1.558780         1.638473
 C        -1.305687         3.044743         1.665898
 C        -0.567029         3.437296         2.879833
 C         0.793674         3.843741         2.368209
 O         1.170190         2.902951         1.343028
 C        -0.138429         2.776858         0.645512
 H         0.368849        -0.225688        -0.255368
 H        -2.366634         1.959179        -0.459752
 H        -2.474775         0.216176         0.124446
 H        -2.119283         1.024554         2.574023
 H        -2.142977         3.646989         1.372051
 H        -1.165824         4.180251         3.494811
 H        -0.445331         2.684143         3.683520
 H         0.521052         4.795122         1.966197
 H         1.584823         3.881835         3.135740
 H        -0.159113         3.567567        -0.166698
