19
Iteration:  4868charge 0 multiplicity 1
 O         0.370647         0.263620         0.580081
 C        -0.645056         1.281503         0.652476
 C        -1.974857         1.143704         0.178450
 C        -1.789938         1.577044         1.602567
 C        -1.391049         3.041178         1.647243
 C        -0.541118         3.472084         2.874539
 C         0.946062         3.672623         2.498871
 O         1.049535         2.963707         1.234520
 C        -0.233372         2.704663         0.646080
 H         1.205835         0.638789         0.946598
 H        -2.372907         1.803079        -0.543032
 H        -2.418311         0.132149         0.231524
 H        -2.158044         1.035026         2.395437
 H        -2.159644         3.772804         1.271383
 H        -0.954108         4.387649         3.392257
 H        -0.669402         2.737582         3.599977
 H         1.085160         4.667580         2.155099
 H         1.693723         3.436742         3.347142
 H        -0.273118         3.132450        -0.401695
