19
Iteration:   625charge 0 multiplicity 1
 O         0.341364         0.153495         0.582367
 C        -0.550646         1.270924         0.668932
 C        -2.069827         1.111225         0.392435
 C        -1.663857         1.657302         1.698595
 C        -1.297350         3.145632         1.482739
 C        -0.643061         3.784038         2.838976
 C         0.719562         3.156370         2.610131
 O         1.049909         3.225722         1.152748
 C        -0.118459         2.715340         0.459817
 H         1.225182         0.316834         1.113405
 H        -2.525314         1.569389        -0.395042
 H        -2.172427         0.080509         0.565320
 H        -1.801808         1.191065         2.714142
 H        -2.185688         3.800281         1.090553
 H        -0.562828         4.886622         2.831253
 H        -1.106679         3.409586         3.713543
 H         1.658066         3.625459         3.096105
 H         0.749303         2.118008         2.971696
 H         0.092461         2.954350        -0.657038
