19
Iteration:  4101
 O         0.370800         0.157434         0.485436
 C        -0.609137         1.219654         0.623901
 C        -2.086664         1.139633         0.243666
 C        -1.773541         1.593794         1.625377
 C        -1.322941         3.136749         1.631849
 C        -0.573596         3.574460         2.909308
 C         0.769588         3.818599         2.391290
 O         1.105177         2.807143         1.395543
 C        -0.123508         2.732504         0.577630
 H         1.207618         0.426404         0.997349
 H        -2.397141         1.854700        -0.451732
 H        -2.281141         0.119725         0.073015
 H        -2.035758         0.924522         2.395436
 H        -2.049059         3.950902         1.447128
 H        -1.129279         4.295347         3.581597
 H        -0.548224         2.684082         3.632459
 H         0.856181         4.911101         1.967518
 H         1.541775         3.732043         3.276033
 H         0.006607         3.171680        -0.419455
