19
Iteration:  4550charge 0 multiplicity 1
 O         0.185270         0.137467         0.679303
 C        -0.580318         1.267936         0.552513
 C        -2.021956         1.180457         0.153323
 C        -1.685142         1.513617         1.525207
 C        -1.321343         2.973000         1.693464
 C        -0.557069         3.461551         2.931519
 C         0.845562         3.921700         2.431669
 O         1.075275         2.948979         1.325003
 C        -0.101631         2.770882         0.637763
 H         0.851077         0.192536        -0.008956
 H        -2.343195         1.896976        -0.510099
 H        -2.324410         0.137325        -0.042079
 H        -1.732228         0.845725         2.475391
 H        -2.074871         3.771177         1.465572
 H        -1.237251         4.188340         3.500698
 H        -0.407061         2.560344         3.513937
 H         0.808188         4.961633         2.135413
 H         1.583146         3.717174         3.292972
 H        -0.082005         3.369197        -0.356876
