19
Iteration:   892
 O         0.408300         0.263050         0.645934
 C        -0.578204         1.228793         0.731430
 C        -2.099039         1.131437         0.280453
 C        -1.642511         1.608614         1.758116
 C        -1.319244         3.105191         1.516079
 C        -0.616512         3.799548         2.680745
 C         0.780875         3.137221         2.585447
 O         1.048551         3.158758         1.186505
 C        -0.160464         2.724782         0.570914
 H         1.372941         0.648586         0.563595
 H        -2.415753         1.757958        -0.445979
 H        -2.636517         0.199954         0.247097
 H        -2.201039         1.152226         2.636837
 H        -2.163056         3.594132         1.005417
 H        -0.504012         4.830077         2.607296
 H        -1.041860         3.625293         3.677554
 H         1.588451         3.670156         3.106713
 H         0.683420         2.089996         2.983604
 H        -0.216673         2.961762        -0.544145
