19
Iteration:  4430
 O         0.286973         0.143191         0.499136
 C        -0.520688         1.255492         0.555974
 C        -1.955408         1.148247         0.239147
 C        -1.716323         1.516603         1.703091
 C        -1.319121         3.104075         1.644763
 C        -0.646300         3.620601         2.862317
 C         0.847683         3.816735         2.475079
 O         1.064844         2.864909         1.410675
 C        -0.203147         2.720665         0.588494
 H         0.801448         0.280292        -0.345852
 H        -2.397358         1.876130        -0.346277
 H        -2.261078         0.186768        -0.083894
 H        -2.051838         0.988949         2.615047
 H        -2.164879         3.643073         1.298118
 H        -1.122293         4.486092         3.429367
 H        -0.689641         2.861308         3.630397
 H         1.049655         4.820889         2.090241
 H         1.506656         3.456545         3.310355
 H         0.011153         3.172539        -0.340394
