19
Iteration:  1830
 O         0.299101         0.204208         0.540967
 C        -0.567709         1.310345         0.696603
 C        -1.932178         1.053612         0.302078
 C        -1.601935         1.644549         1.735339
 C        -1.433482         3.134314         1.564177
 C        -0.634346         3.740228         2.741673
 C         0.839916         3.303606         2.567747
 O         1.026870         3.063626         1.223915
 C        -0.157691         2.771861         0.523182
 H         1.078787         0.393807         1.020172
 H        -2.509465         1.499062        -0.495107
 H        -2.221420        -0.080978         0.454289
 H        -1.840839         1.035546         2.715562
 H        -2.357195         3.600462         1.181590
 H        -0.624892         4.884969         2.592783
 H        -1.136644         3.527447         3.778368
 H         1.489039         4.070178         2.957930
 H         1.021356         2.327450         3.116268
 H        -0.115034         3.059844        -0.502264
