19
Iteration:  4980
 O         0.369339         0.160775         0.328023
 C        -0.564483         1.175127         0.641668
 C        -1.957485         1.217459         0.211653
 C        -1.763006         1.576142         1.645201
 C        -1.396593         3.079460         1.723666
 C        -0.541135         3.524977         2.997518
 C         0.838985         3.933794         2.330012
 O         1.007122         2.840674         1.464656
 C        -0.199256         2.615496         0.666420
 H         1.214559         0.471418         0.699733
 H        -2.333118         1.833737        -0.658976
 H        -2.488315         0.266672         0.014918
 H        -2.316478         0.946335         2.440707
 H        -2.079479         3.849412         1.232994
 H        -1.027318         4.468939         3.330826
 H        -0.371706         2.764844         3.771789
 H         0.761930         4.949799         1.706809
 H         1.702079         4.012789         3.240297
 H         0.058654         3.028751        -0.417617
