19
Iteration:  3166
 O         0.169618         0.103890         0.505788
 C        -0.564919         1.200318         0.606972
 C        -1.952973         1.133945         0.192678
 C        -1.872962         1.586047         1.594750
 C        -1.240680         3.007265         1.712234
 C        -0.640344         3.586867         2.985392
 C         0.829860         3.863574         2.397604
 O         1.134759         3.022008         1.336700
 C        -0.040560         2.623924         0.658400
 H         1.105453         0.269902         0.694367
 H        -2.238338         1.691034        -0.829868
 H        -2.340994         0.148135         0.224566
 H        -2.174832         0.833989         2.368988
 H        -1.802600         3.830231         1.284172
 H        -1.180662         4.522693         3.251949
 H        -0.637431         2.907987         3.742973
 H         0.730568         4.874449         2.080638
 H         1.772849         3.991330         2.976752
 H        -0.165317         2.983592        -0.412124
