19
Iteration:   216charge 0 multiplicity 1
 O         0.341121         0.307849         0.553770
 C        -0.610179         1.361146         0.604247
 C        -2.016321         1.082351         0.288884
 C        -1.752027         1.612918         1.697664
 C        -1.355034         3.094414         1.586645
 C        -0.609530         3.703986         2.849088
 C         0.896581         3.602984         2.415948
 O         1.033017         2.693322         1.327269
 C        -0.143728         2.721296         0.551268
 H         1.050763         0.486733         1.297972
 H        -2.715449         1.630166        -0.415814
 H        -2.102506        -0.065387         0.194532
 H        -2.064082         1.105076         2.558842
 H        -2.251708         3.745756         1.186775
 H        -0.916786         4.762944         2.988382
 H        -0.842501         3.309725         3.866919
 H         1.448730         4.594605         2.174870
 H         1.622171         3.075589         3.166147
 H         0.015619         3.276972        -0.409683
