19
Iteration:  1312
 O         0.409069         0.371512         0.595174
 C        -0.563987         1.317579         0.743706
 C        -2.058995         0.955618         0.392013
 C        -1.779511         1.679780         1.641603
 C        -1.405778         3.136288         1.541121
 C        -0.621194         3.704036         2.681862
 C         0.845623         3.154120         2.649466
 O         1.105771         3.061555         1.176192
 C        -0.158662         2.799009         0.499082
 H         1.185550         0.688781         1.098639
 H        -2.566080         1.225906        -0.500300
 H        -2.246631        -0.064464         0.475626
 H        -2.066740         1.182605         2.542727
 H        -2.299997         3.731913         1.074503
 H        -0.745062         4.831077         2.525978
 H        -1.031042         3.501197         3.696689
 H         1.668390         3.737565         3.081961
 H         0.877208         2.123569         3.033479
 H         0.049664         3.264052        -0.527758
