19
Iteration:   948
 O         0.390683         0.234829         0.706033
 C        -0.593267         1.271571         0.533034
 C        -2.109588         1.046009         0.313149
 C        -1.707842         1.633622         1.648478
 C        -1.327330         3.123979         1.532938
 C        -0.614297         3.711457         2.799103
 C         0.819926         3.231528         2.623457
 O         1.075580         3.158989         1.169781
 C        -0.155682         2.799048         0.488457
 H         0.903838         0.344817         1.575063
 H        -2.633919         1.523024        -0.435810
 H        -2.313836        -0.039866         0.429294
 H        -1.708101         1.100019         2.655318
 H        -2.207307         3.729948         1.197972
 H        -0.602707         4.790982         2.729209
 H        -1.000964         3.336533         3.739520
 H         1.560855         3.911654         3.021080
 H         1.049772         2.206640         3.069686
 H        -0.099806         3.097988        -0.632530
