19
Iteration:  2752
 O         0.172178         0.050954         0.545353
 C        -0.531015         1.256439         0.630077
 C        -2.027354         1.165854         0.149283
 C        -1.733414         1.535616         1.574688
 C        -1.320202         2.996628         1.672300
 C        -0.559970         3.516261         2.958600
 C         0.803191         3.902333         2.368727
 O         1.162329         2.970051         1.357805
 C        -0.157686         2.766780         0.635996
 H         0.892365        -0.146691         1.113042
 H        -2.452501         1.863555        -0.503357
 H        -2.159357         0.178310         0.005761
 H        -1.905679         1.169843         2.486300
 H        -1.921067         3.814644         1.243016
 H        -1.202176         4.432523         3.201551
 H        -0.549416         2.799351         3.866128
 H         0.986252         4.857649         2.071486
 H         1.572460         3.744226         3.110082
 H        -0.147641         3.360832        -0.287632
