19
Iteration:   300
 O         0.196254        -0.046649         0.437095
 C        -0.523868         1.163891         0.694934
 C        -1.996661         1.319424         0.167103
 C        -1.767435         1.589174         1.624618
 C        -1.270174         3.077277         1.697389
 C        -0.471239         3.603363         2.930339
 C         0.761247         4.032897         2.270866
 O         1.002452         2.868963         1.452666
 C        -0.071497         2.607674         0.652540
 H         0.936154        -0.118249         1.152848
 H        -2.357277         2.112922        -0.455821
 H        -2.422136         0.291191        -0.052821
 H        -2.146411         0.917028         2.399501
 H        -2.059542         3.790810         1.389560
 H        -1.054459         4.370072         3.500688
 H        -0.243951         2.757926         3.633049
 H         0.680810         4.951029         1.799416
 H         1.628392         4.041370         2.915317
 H         0.081074         3.089873        -0.336062
