19
Iteration:  2518
 O         0.226160         0.259447         0.193050
 C        -0.682280         1.182257         0.666042
 C        -2.056557         0.912534         0.640690
 C        -1.409780         2.093741        -0.189940
 C        -1.324841         3.243133         0.723232
 C        -0.414544         4.410224         0.253776
 O         0.865356         3.728615         0.257867
 C         0.993924         3.038460         1.485848
 C        -0.430503         2.407189         1.665167
 H         0.754668         0.779002        -0.360415
 H        -2.339411         0.114341        -0.111270
 H        -2.732176         1.338029         1.437172
 H        -1.428074         2.164303        -1.285789
 H        -2.352356         3.726611         1.101894
 H        -0.677190         4.695137        -0.806522
 H        -0.487880         5.271660         0.929797
 H         1.887668         2.519709         1.396246
 H         1.145258         3.754610         2.362061
 H        -0.731658         2.135182         2.675447
