19
Iteration:  1418
 O         0.143780         0.178538         0.097263
 C        -0.698254         1.126474         0.764997
 C        -2.132522         0.900593         0.577198
 C        -1.426582         2.057278        -0.205973
 C        -1.310510         3.237522         0.738153
 C        -0.385708         4.360253         0.233045
 O         0.956049         4.039926         0.382519
 C         1.034538         3.067103         1.389036
 C        -0.329802         2.383292         1.649253
 H        -0.024571        -0.673317         0.591359
 H        -2.355943        -0.094488         0.132961
 H        -2.854078         1.290687         1.406423
 H        -1.485420         2.029379        -1.307478
 H        -2.174261         3.735756         1.113889
 H        -0.792870         4.649011        -0.818373
 H        -0.678359         5.226866         0.892903
 H         1.822950         2.379018         1.030948
 H         1.152986         3.699366         2.302286
 H        -0.606095         2.446337         2.716485
