19
Iteration:  4879charge 0 multiplicity 1
 O         0.346277         0.253982         0.179928
 C        -0.723387         1.159525         0.614079
 C        -2.135141         0.909787         0.626232
 C        -1.525968         1.968715        -0.351573
 C        -1.300377         3.218520         0.537466
 C        -0.365107         4.423676         0.275289
 O         0.973932         4.021947         0.523982
 C         0.989985         2.972869         1.488129
 C        -0.510434         2.405361         1.603582
 H         0.690657         0.001079         1.108521
 H        -2.486054         0.070418         0.098743
 H        -2.914854         1.327992         1.344037
 H        -1.593544         1.881280        -1.421403
 H        -2.226156         3.600934         0.904427
 H        -0.405316         4.883036        -0.732144
 H        -0.645704         5.106782         1.104760
 H         1.600560         2.122072         1.120600
 H         1.214843         3.402230         2.507503
 H        -0.896185         2.263145         2.669163
