19
Iteration:  2290
 O         0.355229         0.226438         0.263577
 C        -0.642483         1.272562         0.614601
 C        -2.123837         0.977250         0.518518
 C        -1.579641         2.156120        -0.301294
 C        -1.383300         3.285206         0.824719
 C        -0.476726         4.414859         0.299525
 O         0.921569         3.769163         0.269979
 C         0.998292         3.001991         1.438934
 C        -0.345794         2.317296         1.586144
 H         0.497947        -0.331518         1.133758
 H        -2.379536         0.100610        -0.044815
 H        -2.777515         1.381193         1.381080
 H        -1.438070         2.297962        -1.364683
 H        -2.371431         3.459860         1.454244
 H        -0.813386         4.592068        -0.752525
 H        -0.464607         5.313759         0.917297
 H         1.811584         2.194278         1.373399
 H         1.237064         3.531885         2.359861
 H        -0.476586         2.197472         2.711144
