19
Iteration:  1658
 O         0.267652         0.228759         0.182999
 C        -0.585527         1.258857         0.543717
 C        -2.156992         0.898836         0.591079
 C        -1.686810         2.133351        -0.222007
 C        -1.348780         3.199815         0.757333
 C        -0.349254         4.339995         0.224668
 O         0.984719         3.917940         0.385522
 C         0.984559         3.040857         1.470161
 C        -0.359286         2.334502         1.608808
 H         0.420874        -0.321016         0.878168
 H        -2.562862        -0.101437         0.138753
 H        -2.874530         1.283818         1.440123
 H        -1.725310         2.337895        -1.264471
 H        -2.158510         3.885028         1.265708
 H        -0.585664         4.534119        -0.868233
 H        -0.433359         5.309750         0.765760
 H         1.851465         2.243119         1.313699
 H         1.322925         3.684168         2.403361
 H        -0.654295         2.094117         2.628915
