19
Iteration:  4469charge 0 multiplicity 1
 O         0.293847         0.226288         0.355718
 C        -0.727119         1.200183         0.547178
 C        -2.143789         0.840845         0.532685
 C        -1.691442         2.042134        -0.243336
 C        -1.248244         3.330169         0.623342
 C        -0.200363         4.179277        -0.042345
 O         0.796740         4.265367         0.979218
 C         1.029462         2.939398         1.373720
 C        -0.376864         2.356201         1.519733
 H         0.127615        -0.129585        -0.608327
 H        -2.544873         0.070255        -0.146013
 H        -2.725319         1.036865         1.342004
 H        -1.763725         2.049393        -1.368352
 H        -2.016583         3.885193         1.056741
 H         0.255827         3.820070        -1.073713
 H        -0.735249         5.129904        -0.169549
 H         1.659528         2.457740         0.559523
 H         1.831606         2.858677         2.216733
 H        -0.632732         2.084817         2.624949
