19
Iteration:  4427
 O         0.348164         0.285311         0.223034
 C        -0.706878         1.138808         0.526014
 C        -2.243170         0.974624         0.658096
 C        -1.639008         1.957934        -0.296386
 C        -1.256558         3.237156         0.493360
 C        -0.184966         4.267208         0.048182
 O         0.810800         4.289747         0.994051
 C         1.038356         2.926747         1.385966
 C        -0.435041         2.308954         1.510663
 H         0.004198        -0.666122         0.173178
 H        -2.550601         0.012787         0.198869
 H        -2.617537         1.126774         1.650623
 H        -1.638234         1.662104        -1.380905
 H        -1.981575         3.916024         0.945162
 H         0.038129         4.147131        -1.049844
 H        -0.509873         5.259800         0.039529
 H         1.625541         2.226272         0.750044
 H         1.744944         2.916314         2.307413
 H        -0.923192         2.253238         2.492817
