19
Iteration:   846
 O         0.216217         0.229338         0.105901
 C        -0.663397         1.116064         0.662598
 C        -2.101316         0.827146         0.658351
 C        -1.615452         2.063784        -0.193732
 C        -1.395148         3.256055         0.712707
 C        -0.344120         4.442191         0.253699
 O         1.021137         3.908170         0.281262
 C         1.041176         3.132395         1.489952
 C        -0.358274         2.394474         1.612507
 H         0.343514        -0.574098         0.719550
 H        -2.540036         0.073096        -0.016393
 H        -2.857466         1.027303         1.489603
 H        -1.739269         2.060868        -1.327557
 H        -2.307745         3.729979         1.209965
 H        -0.642820         4.902730        -0.695021
 H        -0.508881         5.146038         1.087505
 H         1.951033         2.409841         1.494284
 H         0.965276         3.810768         2.340928
 H        -0.605713         2.200359         2.628441
