19
Iteration:  2718charge 0 multiplicity 1
 O         0.220888         0.223015         0.203790
 C        -0.668209         1.240923         0.667066
 C        -2.105486         0.907480         0.609562
 C        -1.512572         2.119321        -0.192623
 C        -1.373550         3.221566         0.770516
 C        -0.430917         4.350313         0.197212
 O         0.944035         3.851804         0.256039
 C         1.020918         3.099450         1.465230
 C        -0.364901         2.308859         1.637492
 H         1.121548         0.265435         0.689652
 H        -2.346807         0.094710        -0.090034
 H        -2.941692         1.063321         1.304110
 H        -1.591006         2.146770        -1.299967
 H        -2.296773         3.631152         1.346351
 H        -0.594664         4.613809        -0.811883
 H        -0.392848         5.349106         0.743698
 H         1.839918         2.404355         1.394785
 H         0.980449         3.822485         2.313434
 H        -0.592136         2.202504         2.683757
