19
Iteration:  3895
 O         0.314947         0.195899         0.458511
 C        -0.721668         1.159997         0.566837
 C        -2.213257         0.920139         0.500425
 C        -1.525243         2.097045        -0.403774
 C        -1.237771         3.245940         0.682344
 C        -0.304489         4.278493         0.090848
 O         0.892807         4.291724         0.948146
 C         1.062022         2.922442         1.218756
 C        -0.484935         2.272689         1.495789
 H        -0.013148        -0.624246         0.279055
 H        -2.486411         0.061956        -0.097976
 H        -2.878483         1.066247         1.262359
 H        -1.797834         2.272176        -1.483123
 H        -2.110876         3.855118         1.218923
 H         0.035913         4.091996        -0.893655
 H        -0.758140         5.291595        -0.003369
 H         1.417758         2.345815         0.291014
 H         1.782392         2.716000         2.083988
 H        -0.796743         2.148964         2.541890
