19
Iteration:  1927charge 0 multiplicity 1
 O         0.352721         0.338291         0.278319
 C        -0.717920         1.281610         0.679463
 C        -2.079840         0.798508         0.468268
 C        -1.666045         2.160162        -0.111457
 C        -1.373826         3.386788         0.786249
 C        -0.300719         4.349487         0.246981
 O         0.942846         3.739048         0.263292
 C         0.995496         2.977486         1.358195
 C        -0.452661         2.358469         1.628162
 H         0.577084        -0.328925         0.827042
 H        -2.208230         0.227282        -0.447835
 H        -2.843007         0.825026         1.242660
 H        -1.841571         2.262369        -1.182553
 H        -2.195488         3.717413         1.368011
 H        -0.510148         4.731575        -0.733153
 H        -0.303264         5.234708         0.955635
 H         1.737992         2.261904         1.326961
 H         1.142958         3.723802         2.110241
 H        -0.527978         2.128731         2.683602
