19
Iteration:  1483charge 0 multiplicity 1
 O         0.325349         0.294766         0.270349
 C        -0.651162         1.192508         0.632146
 C        -2.166039         0.995617         0.538037
 C        -1.470644         2.085611        -0.261160
 C        -1.352635         3.302556         0.759447
 C        -0.489162         4.438758         0.371302
 O         0.895188         3.833232         0.243748
 C         1.016205         2.902476         1.376903
 C        -0.373323         2.331943         1.599781
 H         0.429871        -0.433720         1.036436
 H        -2.581175         0.145095         0.005200
 H        -2.696477         1.406853         1.502928
 H        -1.597391         2.095788        -1.368418
 H        -2.298984         3.439017         1.307023
 H        -0.595470         4.962507        -0.619999
 H        -0.353218         5.264017         1.105891
 H         1.794073         2.149615         1.038567
 H         1.291957         3.444850         2.373659
 H        -0.469814         2.256978         2.675603
