19
Iteration:  4041
 O         0.242135         0.227783         0.294670
 C        -0.731551         1.138549         0.685464
 C        -2.153914         0.928290         0.414847
 C        -1.539146         2.076822        -0.296421
 C        -1.225710         3.291927         0.652611
 C        -0.239000         4.168244         0.014829
 O         0.758040         4.295773         0.915342
 C         1.039470         2.914707         1.317343
 C        -0.349398         2.390201         1.654233
 H        -0.250461        -0.662740         0.196209
 H        -2.276228        -0.006100        -0.233051
 H        -2.979607         1.153131         1.186634
 H        -1.400277         2.093963        -1.383161
 H        -2.162538         3.724614         1.204637
 H        -0.010120         3.637037        -1.013869
 H        -0.704094         5.101156        -0.241591
 H         1.448936         2.285597         0.428090
 H         1.956717         3.017262         2.043696
 H        -0.627045         2.168363         2.657272
