19
Iteration:  1349charge 0 multiplicity 1
 O         0.347138         0.421682         0.218234
 C        -0.673686         1.251313         0.636105
 C        -2.155742         0.760823         0.452066
 C        -1.687205         2.099653        -0.152286
 C        -1.324184         3.369756         0.813191
 C        -0.309246         4.372488         0.258008
 O         0.879363         3.674949         0.192797
 C         1.068329         3.031865         1.474270
 C        -0.424777         2.405299         1.712258
 H         0.328368        -0.436732         0.834236
 H        -2.109671        -0.092409        -0.205019
 H        -2.805766         0.671365         1.259468
 H        -1.840676         2.380767        -1.188162
 H        -2.213412         3.880350         1.232839
 H        -0.437430         4.742006        -0.683785
 H        -0.296346         5.280338         0.996759
 H         1.862129         2.278118         1.388133
 H         1.143958         3.781578         2.247648
 H        -0.567094         2.246265         2.699775
