19
Iteration:  3872
 O         0.338753         0.264654         0.436061
 C        -0.745700         1.112781         0.647857
 C        -2.200285         0.943612         0.567598
 C        -1.653951         1.968605        -0.341586
 C        -1.282825         3.263232         0.507670
 C        -0.191388         4.404725         0.075290
 O         0.802194         4.225272         1.051850
 C         1.067567         2.830224         1.235521
 C        -0.376302         2.318437         1.419697
 H         0.137091        -0.503596        -0.244706
 H        -2.629636         0.260291        -0.166448
 H        -2.926276         1.140296         1.326975
 H        -1.806037         1.985713        -1.443518
 H        -2.273560         3.720323         1.022484
 H         0.299759         4.208958        -0.848677
 H        -0.552691         5.472955        -0.069022
 H         1.511550         2.412761         0.239776
 H         1.806795         2.659775         2.066106
 H        -0.618039         2.488514         2.493240
