19
Iteration:   500
 O         0.340926         0.475745         0.038824
 C        -0.669101         1.242578         0.664918
 C        -2.224607         0.901505         0.657149
 C        -1.608344         2.033507        -0.182920
 C        -1.381189         3.256219         0.730787
 C        -0.383247         4.230067         0.225623
 O         0.983264         3.771924         0.270125
 C         1.036436         3.011351         1.511530
 C        -0.376061         2.436409         1.667466
 H         0.521134        -0.376222         0.571318
 H        -2.557018        -0.029830         0.297270
 H        -2.633591         1.198168         1.604846
 H        -1.748668         2.003483        -1.237492
 H        -2.151977         3.699338         1.284727
 H        -0.646974         4.536509        -0.835337
 H        -0.429803         5.070320         0.986762
 H         1.817364         2.311570         1.563615
 H         1.088569         3.795315         2.341567
 H        -0.558733         2.265178         2.660506
