19
Iteration:  1265charge 0 multiplicity 1
 O         0.207621         0.261695         0.215054
 C        -0.677190         1.226942         0.569048
 C        -2.060243         0.801237         0.603567
 C        -1.725098         2.010060        -0.264960
 C        -1.369724         3.260347         0.793478
 C        -0.283621         4.428579         0.290599
 O         1.030342         3.908619         0.294976
 C         1.037923         3.118521         1.428264
 C        -0.448684         2.378482         1.613474
 H         0.128119        -0.450525         0.867372
 H        -2.209765        -0.111787        -0.062387
 H        -2.755774         0.861502         1.473028
 H        -1.736997         2.050132        -1.326934
 H        -2.134649         3.778266         1.313376
 H        -0.524697         4.813751        -0.786198
 H        -0.506362         5.136507         1.045442
 H         1.810224         2.358678         1.289896
 H         1.476354         3.740426         2.317590
 H        -0.424506         2.183795         2.787532
