19
Iteration:  2684charge 0 multiplicity 1
 O         0.330950         0.316390         0.294729
 C        -0.663303         1.229271         0.643706
 C        -2.143751         0.887606         0.604520
 C        -1.575021         2.123251        -0.139752
 C        -1.366858         3.259728         0.738878
 C        -0.424849         4.331727         0.180687
 O         0.957281         3.846466         0.285950
 C         0.977263         2.939237         1.400427
 C        -0.412962         2.341965         1.601705
 H         1.123760         0.994264         0.377555
 H        -2.390206         0.238755        -0.234498
 H        -2.933345         1.062774         1.395090
 H        -1.752185         2.267539        -1.220228
 H        -2.227336         3.538445         1.432505
 H        -0.516476         4.434664        -0.884861
 H        -0.450202         5.333394         0.708283
 H         1.823936         2.355450         1.303214
 H         1.356820         3.422663         2.332792
 H        -0.723554         2.158451         2.626724
