19
Iteration:   568
 O         0.306952         0.401297         0.266828
 C        -0.633714         1.268408         0.703519
 C        -2.225337         1.017217         0.484471
 C        -1.465147         2.085708        -0.228515
 C        -1.303499         3.238456         0.845419
 C        -0.482193         4.286261         0.261263
 O         0.823501         3.805792         0.221936
 C         1.020329         2.948770         1.383848
 C        -0.245686         2.313451         1.672563
 H        -0.040515        -0.506575         0.516770
 H        -2.410495        -0.039403         0.130152
 H        -2.867278         1.346011         1.297454
 H        -1.475613         2.328340        -1.332952
 H        -2.145210         3.554175         1.374290
 H        -0.634894         4.481507        -0.784304
 H        -0.571391         5.222076         0.920471
 H         1.892648         2.290447         1.106000
 H         1.200890         3.597689         2.267723
 H        -0.400275         2.287986         2.698981
