19
Iteration:  1036charge 0 multiplicity 1
 O         0.290589         0.301392        -0.002064
 C        -0.697971         1.163688         0.663301
 C        -2.106209         0.896298         0.755107
 C        -1.574891         2.069700        -0.199944
 C        -1.326522         3.297615         0.651788
 C        -0.362393         4.350701         0.225788
 O         0.950174         3.883534         0.356005
 C         0.986160         3.049062         1.494986
 C        -0.404724         2.348479         1.666380
 H         0.420245        -0.579111         0.535651
 H        -2.595520        -0.016111         0.399623
 H        -2.542794         1.303260         1.623545
 H        -1.583187         1.992271        -1.326106
 H        -2.309652         3.633800         1.122915
 H        -0.484630         4.733781        -0.834209
 H        -0.540146         5.286848         0.848847
 H         1.774671         2.406862         1.377212
 H         1.298178         3.712772         2.369969
 H        -0.837344         2.233869         2.610487
