19
Iteration:  4350
 O         0.197151         0.078534         0.311165
 C        -0.734156         1.135407         0.551251
 C        -2.230055         0.932684         0.538251
 C        -1.493282         2.075609        -0.380106
 C        -1.237190         3.210463         0.571678
 C        -0.323023         4.366265         0.104884
 O         0.817296         4.304089         0.989479
 C         1.079906         2.957945         1.318181
 C        -0.320409         2.336876         1.462779
 H         0.566770        -0.197177         1.106227
 H        -2.533435         0.010735        -0.045968
 H        -2.853249         1.155573         1.450901
 H        -1.470714         2.051641        -1.483974
 H        -2.213254         3.630530         0.960050
 H        -0.000334         3.979091        -0.871719
 H        -0.669491         5.348709         0.172535
 H         1.657076         2.452433         0.512395
 H         1.516627         2.898783         2.395729
 H        -0.528708         2.149894         2.498740
