19
Iteration:   302charge 0 multiplicity 1
 O         0.257326         0.306261         0.183417
 C        -0.620097         1.236776         0.700184
 C        -2.138402         1.002701         0.637234
 C        -1.425088         2.035293        -0.201036
 C        -1.357140         3.270692         0.694507
 C        -0.463650         4.329721         0.305371
 O         0.838129         3.897138         0.305770
 C         1.079921         2.958080         1.391014
 C        -0.341381         2.361015         1.604178
 H         0.020062        -0.654761         0.504489
 H        -2.417560         0.061878         0.122808
 H        -2.824551         1.334732         1.417747
 H        -1.566562         2.040369        -1.314083
 H        -2.253928         3.637695         1.098352
 H        -0.756265         4.750001        -0.734213
 H        -0.698086         5.110443         1.005996
 H         1.860680         2.267088         1.070766
 H         1.517985         3.458119         2.219358
 H        -0.605454         2.186191         2.690788
