19
Iteration:  3092
 O         0.423828         0.340673         0.328922
 C        -0.663110         1.210092         0.590712
 C        -2.166634         0.941702         0.516725
 C        -1.527504         2.102720        -0.288271
 C        -1.360159         3.275280         0.750264
 C        -0.377495         4.397652         0.288363
 O         0.935827         3.819444         0.347271
 C         0.920933         2.920341         1.545066
 C        -0.416289         2.312195         1.563587
 H         0.243668        -0.131097        -0.478766
 H        -2.634341         0.141030        -0.048925
 H        -2.847571         1.343430         1.256312
 H        -1.561575         2.124666        -1.382393
 H        -2.241246         3.670302         1.143107
 H        -0.616754         4.666288        -0.695084
 H        -0.528327         5.347706         0.829606
 H         1.875981         2.256220         1.545570
 H         1.004867         3.672890         2.293881
 H        -0.746295         2.196032         2.616495
