19
Iteration:   205
 O         0.324139         0.517640         0.030820
 C        -0.697773         1.140853         0.730556
 C        -2.162108         0.795390         0.641865
 C        -1.651654         2.000833        -0.077136
 C        -1.327511         3.345470         0.767944
 C        -0.316052         4.368537         0.167528
 O         0.955347         3.738505         0.198173
 C         0.972168         3.045973         1.542288
 C        -0.377610         2.388147         1.651357
 H         0.397667        -0.377365         0.317551
 H        -2.456891        -0.065485         0.110571
 H        -2.775034         1.032814         1.497166
 H        -1.447562         1.957179        -1.129346
 H        -2.171173         3.757812         1.369262
 H        -0.454380         4.649444        -0.888429
 H        -0.342287         5.299049         0.826172
 H         1.802664         2.382547         1.540203
 H         1.175310         3.786583         2.418762
 H        -0.861473         2.231688         2.659417
