19
Iteration:  1240
 O         0.286288         0.190036         0.170675
 C        -0.675811         1.101522         0.656708
 C        -2.228561         0.998998         0.647534
 C        -1.474236         2.054276        -0.189062
 C        -1.224439         3.277882         0.681469
 C        -0.437966         4.414065         0.223774
 O         0.898206         4.000471         0.373406
 C         0.965159         3.004854         1.407665
 C        -0.298371         2.327608         1.606463
 H         0.098047        -0.780974         0.549108
 H        -2.506154         0.140830         0.125014
 H        -2.826326         1.170145         1.509347
 H        -1.724938         2.178176        -1.287864
 H        -2.069241         3.647584         1.213158
 H        -0.623708         4.688207        -0.741915
 H        -0.802888         5.232546         0.858345
 H         1.839464         2.341864         1.115755
 H         1.237152         3.567208         2.323001
 H        -0.466875         2.390451         2.701371
