19
Iteration:   958charge 0 multiplicity 1
 O         0.282541         0.369466         0.280394
 C        -0.665915         1.216598         0.739806
 C        -2.138841         0.962179         0.511072
 C        -1.430637         2.048012        -0.277090
 C        -1.346450         3.275876         0.760629
 C        -0.484558         4.436241         0.361569
 O         0.846345         3.816324         0.213313
 C         1.047160         2.899855         1.352016
 C        -0.345066         2.362445         1.678306
 H         0.175359        -0.520240         0.388235
 H        -2.351962        -0.039569         0.159698
 H        -2.779907         1.166486         1.303851
 H        -1.214409         2.230366        -1.300897
 H        -2.406687         3.465095         1.109716
 H        -0.729023         5.012030        -0.580418
 H        -0.334244         5.155181         1.236995
 H         1.638302         2.209302         0.957188
 H         1.522838         3.530504         2.120003
 H        -0.601248         2.179558         2.677188
