19
Iteration:  2332
 O         0.356002         0.409919         0.267184
 C        -0.706101         1.160817         0.709601
 C        -2.176988         0.837708         0.526718
 C        -1.596298         2.025233        -0.230495
 C        -1.388562         3.284739         0.718128
 C        -0.351253         4.478580         0.366211
 O         0.970652         3.837384         0.260461
 C         0.996557         2.905983         1.378298
 C        -0.387137         2.444658         1.618813
 H         0.031215        -0.510294         0.053514
 H        -2.264686        -0.081231        -0.049836
 H        -2.905938         0.947754         1.458332
 H        -1.399833         1.859489        -1.278421
 H        -2.207764         3.701846         1.215045
 H        -0.491979         4.869658        -0.696431
 H        -0.367955         5.309330         1.057618
 H         1.830436         2.195295         1.300210
 H         1.235471         3.578724         2.253623
 H        -0.754067         2.298257         2.684312
