19
Iteration:  3920
 O         0.195286         0.072082         0.339921
 C        -0.660722         1.206844         0.691363
 C        -2.194784         0.914490         0.355689
 C        -1.466448         2.096199        -0.286907
 C        -1.310025         3.293669         0.667421
 C        -0.386245         4.309746         0.054462
 O         0.845379         4.242473         0.851075
 C         1.068031         2.961101         1.293031
 C        -0.320742         2.330786         1.594317
 H        -0.301891        -0.735672         0.561607
 H        -2.264136         0.072513        -0.312779
 H        -2.982673         0.962741         1.124165
 H        -1.219271         2.221305        -1.342698
 H        -2.144447         3.820333         1.106968
 H        -0.103173         4.378611        -0.989813
 H        -0.778270         5.274967         0.162529
 H         1.797965         2.286940         0.722144
 H         1.554923         2.889566         2.326270
 H        -0.352252         2.226524         2.664496
