19
Iteration:   943
 O         0.364269         0.371995         0.328688
 C        -0.751443         1.195653         0.748638
 C        -2.140734         0.876336         0.490150
 C        -1.537884         2.054880        -0.215108
 C        -1.314236         3.215049         0.704035
 C        -0.368035         4.427050         0.466317
 O         0.886822         3.898283         0.127470
 C         1.035803         2.946129         1.307936
 C        -0.410268         2.393842         1.641190
 H        -0.049795        -0.522831         0.436587
 H        -2.291657         0.106391        -0.277937
 H        -3.096794         1.045840         1.155227
 H        -1.531783         1.901409        -1.311112
 H        -2.090653         3.620774         1.281782
 H        -0.655320         5.109285        -0.309976
 H        -0.476167         5.042830         1.402579
 H         1.776487         2.010371         1.086558
 H         1.384235         3.383878         2.260743
 H        -0.529723         2.449133         2.742345
