19
Iteration:  4862charge 0 multiplicity 1
 O         0.314757         0.256910         0.198166
 C        -0.657913         1.134882         0.680174
 C        -2.307142         0.867250         0.506130
 C        -1.542004         1.974038        -0.254777
 C        -1.296264         3.264541         0.592372
 C        -0.398604         4.422919         0.184272
 O         0.974945         4.079757         0.597987
 C         0.963363         2.981366         1.518865
 C        -0.366763         2.372935         1.515273
 H         0.809459        -0.262378         0.869733
 H        -2.586969        -0.099850        -0.005717
 H        -2.773717         1.051627         1.477254
 H        -1.413817         1.912106        -1.368091
 H        -2.293641         3.706357         0.965016
 H        -0.281429         4.548684        -0.891999
 H        -0.650346         5.357715         0.737858
 H         1.768813         2.366720         1.105495
 H         1.426136         3.248723         2.449689
 H        -0.766137         2.348019         2.507236
