19
Iteration:  4522
 O         0.197104         0.075024         0.318939
 C        -0.663517         1.164462         0.563235
 C        -2.205121         1.006812         0.527078
 C        -1.512113         1.991433        -0.319144
 C        -1.236585         3.182972         0.601143
 C        -0.333347         4.367919         0.046193
 O         0.852016         4.266879         0.811131
 C         1.045746         2.966574         1.464945
 C        -0.344308         2.330474         1.605178
 H         0.379047         0.040949        -0.709306
 H        -2.272746        -0.056770         0.121964
 H        -2.773185         1.185233         1.396200
 H        -1.810257         2.117136        -1.398569
 H        -2.213684         3.386213         1.027323
 H        -0.187106         4.293447        -0.992750
 H        -0.848246         5.383420         0.079890
 H         1.762521         2.393439         0.868177
 H         1.529454         3.177230         2.480586
 H        -0.751708         2.261103         2.695469
