19
Iteration:  3672
 O         0.149997         0.032600         0.305743
 C        -0.690943         1.166120         0.560584
 C        -2.172619         0.941756         0.568736
 C        -1.607229         1.991086        -0.331787
 C        -1.305793         3.174608         0.635851
 C        -0.301387         4.268677         0.025892
 O         0.844896         4.387227         0.877605
 C         1.110929         3.028567         1.381726
 C        -0.254917         2.335041         1.571882
 H        -0.129238        -0.347118        -0.468077
 H        -2.420395        -0.008883         0.044347
 H        -2.812184         1.322228         1.429869
 H        -1.425732         2.148559        -1.403398
 H        -2.203446         3.826935         0.992466
 H         0.066099         3.975896        -1.011756
 H        -0.613012         5.362988         0.151880
 H         2.005187         2.472335         0.897492
 H         1.438279         3.329857         2.352560
 H        -0.555824         2.110389         2.640445
