19
Iteration:  3952
 O         0.150519         0.032248         0.240641
 C        -0.667633         1.134227         0.684244
 C        -2.239025         1.004413         0.431430
 C        -1.436210         1.943594        -0.366462
 C        -1.277367         3.176661         0.574951
 C        -0.401179         4.374352         0.166417
 O         0.985221         4.329042         0.792053
 C         0.995517         3.032630         1.386268
 C        -0.343323         2.333398         1.595350
 H         0.375907        -0.482174         1.110155
 H        -2.573786         0.159198        -0.109797
 H        -2.842370         1.261385         1.290395
 H        -1.355368         2.082730        -1.441955
 H        -2.252065         3.645314         0.950683
 H        -0.112393         4.405500        -0.869201
 H        -0.950207         5.212247         0.573989
 H         1.654282         2.402891         0.674678
 H         1.455492         3.064732         2.475314
 H        -0.530705         2.257350         2.656169
