19
Iteration:  4455charge 0 multiplicity 1
 O         0.344873         0.291048         0.338826
 C        -0.708086         1.138907         0.559855
 C        -2.186108         0.916826         0.651308
 C        -1.665845         2.084102        -0.305006
 C        -1.305199         3.230324         0.540750
 C        -0.188097         4.242555         0.024149
 O         0.812311         4.284199         1.018954
 C         1.026238         2.874991         1.315668
 C        -0.399170         2.309165         1.420052
 H         0.203633        -0.292738        -0.396970
 H        -2.292652        -0.031973         0.088961
 H        -2.746229         0.943037         1.642539
 H        -2.014119         2.094501        -1.342549
 H        -2.057659         3.786746         1.125054
 H         0.151794         3.741697        -0.887732
 H        -0.287055         5.333671        -0.347366
 H         1.628328         2.253248         0.626666
 H         1.423156         2.890506         2.321867
 H        -0.801023         2.306129         2.482558
