19
Iteration:  2782
 O         0.333836         0.362284         0.346356
 C        -0.717322         1.151788         0.647097
 C        -2.134758         0.949165         0.612657
 C        -1.553844         2.114717        -0.281143
 C        -1.273528         3.203341         0.775674
 C        -0.400859         4.362315         0.174537
 O         0.911299         3.928235         0.333879
 C         0.971826         2.968838         1.427508
 C        -0.378009         2.284704         1.629518
 H         0.100287        -0.217318        -0.511872
 H        -2.416252         0.049196         0.018550
 H        -2.937693         1.235127         1.343522
 H        -1.427167         2.142174        -1.380812
 H        -2.151852         3.520054         1.247307
 H        -0.541522         4.621895        -0.865235
 H        -0.640058         5.252938         0.841362
 H         1.992677         2.341891         1.105500
 H         1.325705         3.539482         2.319466
 H        -0.774335         2.222973         2.666663
