19
Iteration:  1611
 O         0.232557         0.301644         0.015087
 C        -0.700117         1.163786         0.675585
 C        -2.212669         0.855398         0.612403
 C        -1.610485         1.999201        -0.164167
 C        -1.320592         3.282320         0.765001
 C        -0.327459         4.310405         0.168259
 O         1.033316         3.955070         0.402181
 C         1.009693         3.089115         1.498263
 C        -0.403890         2.397605         1.619956
 H         0.456310        -0.301694         0.735721
 H        -2.460648         0.077111        -0.017107
 H        -2.776087         0.911327         1.473732
 H        -1.503205         1.928240        -1.291541
 H        -2.190872         3.750203         1.305694
 H        -0.375843         4.460336        -0.858863
 H        -0.464925         5.329548         0.680954
 H         1.752665         2.235868         1.490599
 H         1.253103         3.770924         2.457353
 H        -0.548258         2.332885         2.724560
