19
Iteration:  2247charge 0 multiplicity 1
 O         0.222477         0.248664         0.143996
 C        -0.676938         1.084851         0.723048
 C        -2.147944         0.866694         0.499714
 C        -1.524805         2.053532        -0.192930
 C        -1.324111         3.308923         0.822303
 C        -0.439106         4.404586         0.247816
 O         0.976757         3.898115         0.265590
 C         1.001591         3.099689         1.488512
 C        -0.380859         2.414365         1.583897
 H         0.192537        -0.607462         0.600219
 H        -2.201446        -0.147155         0.145510
 H        -2.976632         1.121683         1.224794
 H        -1.140298         2.242624        -1.169746
 H        -2.322272         3.720884         1.377891
 H        -0.375945         4.773937        -0.798041
 H        -0.475746         5.259004         1.043777
 H         1.921374         2.372009         1.458629
 H         1.230472         3.750424         2.333193
 H        -0.526031         2.147448         2.641826
