19
Iteration:  2359
 O         0.354514         0.324638         0.317702
 C        -0.702620         1.174590         0.616596
 C        -2.137327         0.927570         0.553154
 C        -1.569929         2.199682        -0.218083
 C        -1.328322         3.241801         0.762505
 C        -0.475944         4.314883         0.219313
 O         0.949051         3.843672         0.304740
 C         0.992214         2.978155         1.447357
 C        -0.326933         2.365935         1.656218
 H         0.103990        -0.322863        -0.429569
 H        -2.427782         0.126006        -0.154618
 H        -2.755476         1.058517         1.373739
 H        -1.521012         2.294028        -1.312187
 H        -2.221716         3.753496         1.399952
 H        -0.627358         4.426087        -0.838014
 H        -0.594588         5.281998         0.755534
 H         1.872189         2.245944         1.359578
 H         1.270816         3.592182         2.309133
 H        -0.753597         2.194013         2.628045
