19
Iteration:  2293
 O         0.362988         0.232187         0.273878
 C        -0.622662         1.278342         0.596384
 C        -2.121364         0.989917         0.519852
 C        -1.596201         2.130430        -0.292257
 C        -1.394700         3.302841         0.817703
 C        -0.464600         4.413991         0.322443
 O         0.930445         3.779049         0.251194
 C         0.982833         2.985349         1.435544
 C        -0.358442         2.299643         1.606252
 H         0.417319        -0.254444         1.050853
 H        -2.377055         0.113293        -0.017764
 H        -2.729130         1.291173         1.334466
 H        -1.518144         2.218204        -1.418815
 H        -2.422515         3.435191         1.409154
 H        -0.694674         4.575087        -0.717979
 H        -0.445693         5.382301         0.962984
 H         1.809524         2.172470         1.349640
 H         1.235991         3.511287         2.360844
 H        -0.456245         2.339978         2.694837
