19
Iteration:  3686
 O         0.203280         0.047835         0.277690
 C        -0.663499         1.143356         0.622712
 C        -2.169414         0.882873         0.532952
 C        -1.545721         2.089618        -0.277683
 C        -1.280683         3.267157         0.664778
 C        -0.264536         4.262930         0.010357
 O         0.854437         4.362355         0.868779
 C         1.052920         3.029733         1.422632
 C        -0.343116         2.350556         1.534384
 H        -0.375535        -0.583390        -0.317644
 H        -2.380165        -0.021160         0.013495
 H        -2.926480         1.075057         1.247995
 H        -1.937756         2.178473        -1.279583
 H        -2.128184         3.582865         1.207693
 H         0.008902         3.758564        -0.979953
 H        -0.748959         5.255250        -0.389798
 H         1.624591         2.409562         0.580293
 H         1.711685         3.014179         2.362587
 H        -0.589861         2.242467         2.607339
