19
Iteration:  1830charge 0 multiplicity 1
 O         0.270420         0.218022         0.198309
 C        -0.733514         1.170425         0.612990
 C        -2.160493         0.853812         0.572843
 C        -1.731703         2.032608        -0.230962
 C        -1.337998         3.333914         0.806455
 C        -0.408477         4.415891         0.172439
 O         1.055216         3.934224         0.394842
 C         1.040343         3.012700         1.512405
 C        -0.285679         2.361577         1.491094
 H         0.319303        -0.266008         1.052101
 H        -2.255110        -0.034722        -0.070523
 H        -2.830562         1.087788         1.327738
 H        -1.835909         2.340531        -1.258827
 H        -2.101340         3.720761         1.465713
 H        -0.457605         4.688666        -0.852844
 H        -0.522400         5.299813         0.798343
 H         2.056354         2.509565         1.260194
 H         1.154502         3.624782         2.467553
 H        -0.713988         2.191647         2.556254
