19
Iteration:  3462charge 0 multiplicity 1
 O         0.234177         0.140058         0.360424
 C        -0.676333         1.208390         0.626139
 C        -2.177540         0.854046         0.358265
 C        -1.580826         2.102235        -0.208364
 C        -1.303894         3.281194         0.757659
 C        -0.379108         4.333355         0.042049
 O         0.888032         4.125632         0.604504
 C         1.041799         2.931549         1.439357
 C        -0.366055         2.383056         1.639408
 H         1.221847         0.448381         0.102323
 H        -2.303030        -0.068076        -0.228938
 H        -2.729577         1.011684         1.333913
 H        -1.841804         2.310587        -1.258221
 H        -2.071591         3.758584         1.258522
 H        -0.229469         4.155769        -1.068450
 H        -0.682907         5.396126         0.043918
 H         1.685426         2.120337         0.900159
 H         1.507102         3.140654         2.438762
 H        -0.605675         2.125960         2.691622
