19
Iteration:   218
 O         0.309567         0.453888        -0.012951
 C        -0.633160         1.145962         0.721956
 C        -2.145020         0.954930         0.728647
 C        -1.524973         2.090127        -0.116285
 C        -1.351994         3.242641         0.756134
 C        -0.427927         4.369402         0.087980
 O         0.958834         3.708581         0.318390
 C         0.960871         3.054869         1.520638
 C        -0.392360         2.341103         1.666493
 H         0.446353        -0.503081         0.289829
 H        -2.561477         0.271504        -0.005983
 H        -2.625179         1.032469         1.649810
 H        -1.752896         2.001561        -1.222800
 H        -2.298795         3.694282         1.243768
 H        -0.552338         4.456070        -0.948164
 H        -0.434439         5.431676         0.572448
 H         1.757189         2.362838         1.475906
 H         1.023735         3.827615         2.409019
 H        -0.507239         2.209843         2.745168
