19
Iteration:  4822
 O         0.282139         0.166687         0.244753
 C        -0.617028         1.199232         0.583611
 C        -2.126772         0.936892         0.401539
 C        -1.546599         2.071836        -0.196872
 C        -1.349775         3.271625         0.774359
 C        -0.421012         4.258998         0.002462
 O         0.882799         4.113353         0.662469
 C         1.051888         3.015194         1.510415
 C        -0.363866         2.408161         1.578765
 H        -0.323368        -0.586706         0.465211
 H        -2.299090        -0.013630        -0.150066
 H        -2.637758         1.090929         1.266077
 H        -1.721616         2.303392        -1.282695
 H        -2.156397         3.696634         1.360909
 H        -0.354885         4.028733        -1.127158
 H        -0.733515         5.276518         0.046384
 H         1.819660         2.183571         1.291111
 H         1.403396         3.302999         2.626054
 H        -0.544126         2.078125         2.636576
