19
Iteration:  1719
 O         0.334845         0.341316         0.340653
 C        -0.634102         1.251092         0.627489
 C        -2.082408         1.012974         0.506207
 C        -1.519515         2.174143        -0.251717
 C        -1.357261         3.286067         0.798376
 C        -0.463125         4.347837         0.340647
 O         0.867469         3.729559         0.228478
 C         1.019154         2.928883         1.396020
 C        -0.367913         2.324763         1.607637
 H        -0.004959        -0.483447         0.612553
 H        -2.369117         0.320717        -0.239353
 H        -2.720112         1.158162         1.319052
 H        -1.557483         2.491618        -1.342754
 H        -2.263457         3.504785         1.253896
 H        -0.733425         4.641738        -0.639837
 H        -0.435043         5.248713         0.945780
 H         1.680201         2.116875         1.275177
 H         1.244988         3.549344         2.203616
 H        -0.601180         2.180111         2.697451
