19
Iteration:  3897charge 0 multiplicity 1
 O         0.304284         0.190324         0.451817
 C        -0.725005         1.156937         0.575816
 C        -2.184038         0.927339         0.493156
 C        -1.525006         2.089871        -0.415127
 C        -1.248909         3.247083         0.704493
 C        -0.313296         4.290959         0.096495
 O         0.888700         4.287278         0.926902
 C         1.062694         2.923816         1.235772
 C        -0.483080         2.274272         1.506872
 H        -0.095703        -0.666500         0.305515
 H        -2.418108         0.125874        -0.168043
 H        -2.886072         1.106094         1.238699
 H        -1.794681         2.314853        -1.463448
 H        -2.084784         3.761163         1.200441
 H         0.044237         4.064174        -0.884890
 H        -0.752573         5.237229        -0.038708
 H         1.470029         2.356528         0.351781
 H         1.857578         2.711371         2.026558
 H        -0.814722         2.212637         2.523556
