19
Iteration:  2792charge 0 multiplicity 1
 O         0.369265         0.384998         0.327661
 C        -0.695477         1.275511         0.669817
 C        -2.178845         0.890117         0.544973
 C        -1.546243         2.042091        -0.247898
 C        -1.351327         3.264603         0.730570
 C        -0.464901         4.361453         0.199216
 O         0.952942         3.905614         0.370568
 C         1.042328         2.913308         1.408081
 C        -0.375838         2.360530         1.665681
 H        -0.145516        -0.361833        -0.169311
 H        -2.468795         0.052260        -0.131133
 H        -2.932776         1.063294         1.380926
 H        -1.602270         2.085355        -1.354084
 H        -2.213171         3.634254         1.162190
 H        -0.566547         4.570959        -0.896538
 H        -0.520281         5.343810         0.643457
 H         1.837212         2.057761         0.998394
 H         1.332037         3.400490         2.328344
 H        -0.414851         1.993760         2.720188
