19
Iteration:   186
 O         0.333281         0.508135         0.134872
 C        -0.736764         1.297243         0.652740
 C        -2.110352         0.764816         0.661301
 C        -1.687807         2.089056        -0.163792
 C        -1.362071         3.251657         0.754581
 C        -0.347807         4.282264         0.259093
 O         1.014232         3.697553         0.213389
 C         1.005541         3.039293         1.381136
 C        -0.427344         2.438795         1.705177
 H         0.520239        -0.252015         0.758819
 H        -2.120025         0.031163        -0.149005
 H        -2.767056         0.524298         1.444836
 H        -2.023346         2.239046        -1.221465
 H        -2.256013         3.873270         1.150084
 H        -0.493318         4.769655        -0.638216
 H        -0.297152         5.123131         1.043826
 H         1.759788         2.304648         1.468516
 H         1.231053         3.652094         2.303727
 H        -0.503301         2.261382         2.742400
