19
Iteration:  3380charge 0 multiplicity 1
 O         0.247763         0.109111         0.234389
 C        -0.641795         1.215493         0.553206
 C        -2.085330         0.878351         0.545995
 C        -1.550896         2.121203        -0.292473
 C        -1.319798         3.222222         0.723816
 C        -0.372802         4.416312         0.220175
 O         0.995432         3.797829         0.351995
 C         0.897392         3.250017         1.680407
 C        -0.412603         2.315205         1.597664
 H         0.875071         0.587937        -0.471842
 H        -2.533091         0.123720        -0.064605
 H        -2.800539         1.081890         1.369032
 H        -1.558312         2.124725        -1.363686
 H        -2.258195         3.705601         1.275523
 H        -0.412289         4.761447        -0.817303
 H        -0.527099         5.172182         0.968326
 H         1.842885         2.639560         1.909239
 H         0.588420         4.036175         2.331132
 H        -0.664195         1.988886         2.626661
