19
Iteration:  2412
 O         0.276343         0.245142         0.246549
 C        -0.676196         1.194217         0.688077
 C        -2.164900         0.882916         0.607767
 C        -1.540730         2.017181        -0.227556
 C        -1.379699         3.239037         0.734604
 C        -0.329261         4.410221         0.285804
 O         0.962082         3.825629         0.285124
 C         0.960938         3.114741         1.489466
 C        -0.341045         2.392606         1.568361
 H         0.329995         0.536255        -0.719268
 H        -2.364606        -0.081981         0.050219
 H        -2.995680         1.148255         1.288338
 H        -1.712902         2.057330        -1.320513
 H        -2.221265         3.723875         1.287137
 H        -0.518986         4.790421        -0.692389
 H        -0.343735         5.193023         1.058038
 H         1.916448         2.402624         1.391235
 H         1.170168         3.756749         2.355624
 H        -0.809091         2.095533         2.529589
