19
Iteration:  3635charge 0 multiplicity 1
 O         0.204444        -0.023960         0.317465
 C        -0.657224         1.080572         0.616268
 C        -2.178684         0.994323         0.639162
 C        -1.571982         1.991178        -0.302196
 C        -1.256794         3.264690         0.518698
 C        -0.297954         4.392313         0.038288
 O         0.848771         4.347104         0.914416
 C         1.064208         2.962225         1.308098
 C        -0.395487         2.315228         1.519036
 H         0.818662         0.282045        -0.381426
 H        -2.749544         0.163663         0.200583
 H        -2.665825         1.328054         1.592663
 H        -1.611657         1.881559        -1.404919
 H        -2.225024         3.656851         0.966869
 H        -0.081531         4.331693        -1.021166
 H        -0.800936         5.264757         0.222473
 H         1.658757         2.344628         0.684766
 H         1.454725         3.123477         2.313713
 H        -0.516220         2.223015         2.581942
