19
Iteration:  2319
 O         0.374044         0.361704         0.277189
 C        -0.737661         1.195016         0.690955
 C        -2.102380         0.791606         0.604983
 C        -1.581552         2.150576        -0.243624
 C        -1.308434         3.332224         0.687261
 C        -0.402018         4.437711         0.338763
 O         0.940769         3.788300         0.266823
 C         0.999831         2.978266         1.401146
 C        -0.451967         2.359496         1.538482
 H         0.216224        -0.554451         0.521753
 H        -2.471911         0.040021        -0.148649
 H        -2.856037         0.951944         1.421524
 H        -1.501619         2.262586        -1.309644
 H        -2.145856         3.624389         1.156579
 H        -0.593159         5.075374        -0.564762
 H        -0.422197         5.017500         1.292953
 H         1.605706         2.185581         1.172885
 H         1.372623         3.429688         2.389004
 H        -0.615995         2.403532         2.632393
