19
Iteration:   651charge 0 multiplicity 1
 O         0.295252         0.227858         0.292351
 C        -0.685096         1.114378         0.701035
 C        -2.197434         1.038998         0.624126
 C        -1.487236         2.142934        -0.294277
 C        -1.283828         3.185304         0.760971
 C        -0.496700         4.393134         0.310962
 O         0.912524         4.001197         0.309192
 C         1.071995         2.979729         1.291084
 C        -0.335633         2.297803         1.544156
 H         0.129001        -0.677484         0.810330
 H        -2.420909         0.054353         0.174085
 H        -3.010986         1.239286         1.287893
 H        -1.483242         2.324178        -1.360792
 H        -2.182155         3.497667         1.398396
 H        -0.699842         4.767838        -0.756057
 H        -0.732131         5.310390         0.997671
 H         1.783890         2.266255         1.003473
 H         1.441804         3.351242         2.354322
 H        -0.567322         2.151244         2.693711
