19
Iteration:   260
 O         0.248806         0.255360         0.149018
 C        -0.703315         1.209728         0.563222
 C        -2.104700         0.811160         0.649312
 C        -1.718712         2.116829        -0.120227
 C        -1.320291         3.296922         0.742600
 C        -0.393247         4.331192         0.187827
 O         1.002670         3.915734         0.347882
 C         1.032960         3.092665         1.501354
 C        -0.245887         2.345778         1.549122
 H         0.275771        -0.325297         0.837863
 H        -2.217768         0.082974        -0.162069
 H        -2.756903         0.696798         1.456522
 H        -2.325795         2.281558        -1.069993
 H        -2.233221         3.707094         1.271081
 H        -0.483554         4.477167        -0.884932
 H        -0.513521         5.331528         0.629574
 H         1.931149         2.543585         1.520929
 H         0.865579         3.716193         2.408195
 H        -0.509435         2.073828         2.646402
