19
Iteration:  4481charge 0 multiplicity 1
 O         0.245043         0.181108         0.300964
 C        -0.679467         1.160436         0.620671
 C        -2.226921         0.819775         0.483710
 C        -1.593653         2.096752        -0.258341
 C        -1.293203         3.198159         0.645894
 C        -0.258276         4.190112        -0.049718
 O         0.865311         4.356973         0.929337
 C         1.036511         2.977841         1.373740
 C        -0.328361         2.349568         1.632364
 H         0.158112        -0.109579        -0.621316
 H        -2.483234         0.033699        -0.220691
 H        -2.981206         1.028599         1.178412
 H        -1.714244         2.366141        -1.336293
 H        -2.032784         3.800106         1.107222
 H         0.136721         3.688834        -1.065399
 H        -0.544098         5.207971        -0.266087
 H         1.420980         2.284160         0.576086
 H         1.619061         3.078089         2.369159
 H        -0.615598         2.287135         2.737175
