19
Iteration:  4545charge 0 multiplicity 1
 O         0.207420         0.049607         0.359206
 C        -0.665446         1.111913         0.538179
 C        -2.115145         0.878815         0.607414
 C        -1.590011         2.047709        -0.300818
 C        -1.349553         3.257598         0.545609
 C        -0.319233         4.389932         0.122913
 O         0.951219         4.251090         0.839733
 C         0.994733         2.956080         1.383295
 C        -0.377785         2.372758         1.435919
 H         0.948495         0.218008        -0.155264
 H        -2.654104         0.072666         0.101039
 H        -2.603619         1.282986         1.446268
 H        -1.621877         2.089862        -1.420071
 H        -2.271155         3.502957         1.001712
 H        -0.168014         4.482460        -0.910471
 H        -0.718347         5.423050         0.353311
 H         1.772369         2.490161         0.836060
 H         1.236973         2.928581         2.533209
 H        -0.781250         2.295197         2.550303
