19
Iteration:   723
 O         0.495511         0.331646         0.200753
 C        -0.694059         1.156465         0.593220
 C        -2.189061         1.062828         0.660267
 C        -1.619888         2.209534        -0.224519
 C        -1.344559         3.281767         0.789079
 C        -0.398648         4.346979         0.281461
 O         0.872553         3.725801         0.196799
 C         0.979698         3.041137         1.510565
 C        -0.337198         2.274326         1.575594
 H         0.232627        -0.549295         0.732627
 H        -2.578847         0.285312        -0.034623
 H        -2.726959         1.002929         1.700784
 H        -1.936312         2.336989        -1.230180
 H        -2.345251         3.471673         1.143685
 H        -0.572235         4.668349        -0.722143
 H        -0.462048         5.202526         0.929590
 H         1.909335         2.267672         1.443989
 H         1.041916         3.693473         2.378684
 H        -0.586963         1.998799         2.548135
