19
Iteration:  3263
 O         0.349168         0.130159         0.249970
 C        -0.619510         1.204353         0.612864
 C        -2.077085         0.994743         0.433149
 C        -1.478417         2.073981        -0.284852
 C        -1.311140         3.311304         0.784038
 C        -0.444134         4.393093         0.230329
 O         0.881694         3.827892         0.331989
 C         0.944239         3.064360         1.635208
 C        -0.439689         2.406475         1.672876
 H        -0.059958        -0.272755        -0.605924
 H        -2.303521         0.029000        -0.005312
 H        -2.692750         1.182719         1.327807
 H        -1.436822         2.176853        -1.354059
 H        -2.203132         3.716260         1.120272
 H        -0.668816         4.646233        -0.864812
 H        -0.457634         5.255701         0.915576
 H         1.722259         2.414334         1.602992
 H         0.972974         3.848156         2.416159
 H        -0.840284         2.062696         2.626747
