19
Iteration:  3218charge 0 multiplicity 1
 O         0.383319         0.232513         0.284716
 C        -0.720484         1.162441         0.609049
 C        -2.211514         0.822246         0.401559
 C        -1.590377         2.104357        -0.280858
 C        -1.349344         3.260837         0.712224
 C        -0.366763         4.396592         0.261867
 O         0.989248         3.966500         0.430749
 C         1.009015         3.060432         1.549533
 C        -0.389299         2.334668         1.592075
 H         0.080972        -0.658654         0.634788
 H        -2.447705        -0.038923        -0.246661
 H        -2.960724         1.176974         1.111347
 H        -1.647766         2.397812        -1.347677
 H        -2.127419         3.650338         1.296076
 H        -0.405851         4.532965        -0.885350
 H        -0.619353         5.249808         0.885745
 H         1.871093         2.444347         1.345131
 H         1.068002         3.691670         2.481422
 H        -0.728112         2.443081         2.623410
