19
Iteration:  1543
 O         0.425884         0.377039         0.283831
 C        -0.641796         1.256664         0.599626
 C        -2.152459         1.018160         0.443342
 C        -1.685686         2.200456        -0.163300
 C        -1.301165         3.289345         0.842026
 C        -0.398966         4.289660         0.226822
 O         0.850987         3.674230         0.222500
 C         0.991384         3.002625         1.456708
 C        -0.343447         2.328553         1.703824
 H         0.267137        -0.560249         0.506570
 H        -2.387277         0.240822        -0.303996
 H        -2.774905         0.924312         1.262527
 H        -1.735775         2.320401        -1.235680
 H        -2.163820         3.649050         1.382689
 H        -0.649612         4.526502        -0.807543
 H        -0.440890         5.212563         0.877687
 H         1.861011         2.410740         1.243779
 H         1.236388         3.630650         2.420768
 H        -0.642400         1.973632         2.730033
