19
Iteration:  3605
 O         0.127538         0.138035         0.355363
 C        -0.710285         1.188870         0.678972
 C        -2.136383         0.855631         0.542914
 C        -1.571313         2.054496        -0.325740
 C        -1.237472         3.228957         0.618092
 C        -0.269634         4.315101         0.024229
 O         0.843717         4.319915         0.951120
 C         1.095751         2.885205         1.154894
 C        -0.410836         2.373490         1.552241
 H         1.123007         0.379088         0.645489
 H        -2.300702        -0.099480        -0.049095
 H        -2.945810         0.929205         1.385865
 H        -1.817613         1.984910        -1.397556
 H        -2.189835         3.656680         1.146756
 H         0.103147         3.923947        -0.991413
 H        -0.877164         5.221610         0.016669
 H         1.690802         2.448458         0.160740
 H         1.551789         2.885061         2.079544
 H        -0.395655         2.307495         2.667626
