19
Iteration:   868
 O         0.229952         0.235094         0.151148
 C        -0.670185         1.148673         0.707132
 C        -2.213755         0.922081         0.549956
 C        -1.488808         2.027003        -0.138399
 C        -1.212622         3.223435         0.754423
 C        -0.422649         4.461170         0.256157
 O         0.916863         3.927507         0.274394
 C         1.009474         3.137930         1.436029
 C        -0.287961         2.318773         1.656449
 H        -0.233957        -0.621435         0.200919
 H        -2.331916        -0.004677         0.000210
 H        -3.033913         1.068534         1.334137
 H        -1.425505         1.771921        -1.231760
 H        -2.088778         3.700327         1.276338
 H        -0.809962         4.598377        -0.749381
 H        -0.660572         5.328811         0.942425
 H         1.891107         2.433238         1.270538
 H         1.004794         3.759115         2.323822
 H        -0.603952         2.271476         2.649051
