19
Iteration:  2008
 O         0.237322         0.098309         0.299874
 C        -0.649546         1.175908         0.578263
 C        -2.121041         0.861765         0.531661
 C        -1.655630         2.086870        -0.221617
 C        -1.383664         3.373637         0.707870
 C        -0.337816         4.475268         0.266491
 O         0.947389         3.912092         0.321041
 C         0.990537         3.120942         1.469258
 C        -0.283340         2.327001         1.540816
 H         0.107918        -0.565120         0.907507
 H        -2.175953        -0.039889        -0.126992
 H        -2.658970         0.919402         1.459184
 H        -1.814009         2.214813        -1.294744
 H        -2.369713         3.518732         1.187923
 H        -0.511194         5.080679        -0.652652
 H        -0.366497         5.246051         1.126833
 H         1.939658         2.392177         1.408756
 H         1.276505         3.694226         2.337023
 H        -0.486936         2.087915         2.721001
