19
Iteration:  3099charge 0 multiplicity 1
 O         0.382574         0.305800         0.327132
 C        -0.613195         1.198137         0.630530
 C        -2.099156         0.991176         0.459403
 C        -1.556837         2.177019        -0.322192
 C        -1.349881         3.262309         0.757050
 C        -0.385467         4.335697         0.283319
 O         0.913323         3.793270         0.358197
 C         0.922521         3.002328         1.528222
 C        -0.417956         2.316868         1.598503
 H         0.115153        -0.160387        -0.409481
 H        -2.436141         0.067107        -0.051092
 H        -2.727014         1.100218         1.379519
 H        -1.730072         2.118780        -1.428944
 H        -2.324338         3.642037         1.372192
 H        -0.541882         4.538026        -0.816776
 H        -0.400428         5.283513         0.879412
 H         1.661829         2.313761         1.407662
 H         1.122507         3.720079         2.396255
 H        -0.855036         2.161092         2.582722
