19
Iteration:  4014charge 0 multiplicity 1
 O         0.300991         0.230771         0.334019
 C        -0.768041         1.111733         0.651608
 C        -2.217829         0.860183         0.403871
 C        -1.563129         2.000230        -0.322569
 C        -1.285982         3.297495         0.646871
 C        -0.285632         4.330933         0.073529
 O         0.922669         4.261633         0.916742
 C         1.017782         2.899391         1.282855
 C        -0.384056         2.419769         1.582452
 H         0.087002        -0.671115         0.705005
 H        -2.442276         0.008927        -0.181400
 H        -2.867307         1.033069         1.223374
 H        -1.550665         1.993132        -1.428385
 H        -2.201121         3.557832         1.155346
 H        -0.151392         3.990223        -0.923541
 H        -0.601478         5.400026        -0.175161
 H         1.553043         2.332055         0.548020
 H         1.692975         2.926006         2.080529
 H        -0.643450         2.305611         2.675294
