19
Iteration:  2193
 O         0.411254         0.368493         0.255493
 C        -0.670260         1.181447         0.565750
 C        -2.154126         0.923278         0.621151
 C        -1.672537         2.120985        -0.222845
 C        -1.237911         3.293291         0.735606
 C        -0.390163         4.339272         0.241827
 O         0.891605         3.824312         0.359569
 C         0.991008         2.971403         1.422695
 C        -0.404537         2.353983         1.583839
 H         0.094343        -0.511084         0.609368
 H        -2.574692         0.334758        -0.161496
 H        -2.766307         0.970298         1.526310
 H        -1.865864         2.142466        -1.272824
 H        -2.210824         3.613447         1.308498
 H        -0.384187         4.558552        -0.844940
 H        -0.602407         5.352964         0.776899
 H         1.983594         2.317953         1.293876
 H         1.123690         3.571401         2.370063
 H        -0.563849         2.135709         2.663943
