19
Iteration:  4408
 O         0.175137         0.198377         0.161701
 C        -0.667908         1.134507         0.674226
 C        -2.139807         0.858290         0.531535
 C        -1.507475         2.034789        -0.282471
 C        -1.239921         3.248064         0.609270
 C        -0.290114         4.270175        -0.012563
 O         0.844629         4.300259         0.955045
 C         1.025581         2.964269         1.416926
 C        -0.373918         2.368537         1.524270
 H         0.151290        -0.723172         0.654810
 H        -2.571568         0.045500        -0.071154
 H        -2.956222         1.330063         1.303834
 H        -1.745597         1.924406        -1.341457
 H        -2.168909         3.867980         1.032843
 H         0.090585         4.084819        -1.011079
 H        -0.699587         5.304787        -0.128736
 H         1.698319         2.392423         0.731880
 H         1.440726         2.826915         2.393577
 H        -0.622519         2.212929         2.542868
