19
Iteration:  3443
 O         0.306835         0.284808         0.323592
 C        -0.784438         1.096148         0.704635
 C        -2.146311         0.912434         0.501723
 C        -1.623592         2.116042        -0.238552
 C        -1.304471         3.250523         0.690071
 C        -0.363601         4.249323         0.109571
 O         1.004258         4.108072         0.600367
 C         1.013725         2.924035         1.374144
 C        -0.455574         2.345064         1.576802
 H         1.160797         0.817727         0.025694
 H        -2.182558         0.186738        -0.300777
 H        -3.051440         0.761450         1.111222
 H        -1.437049         1.991178        -1.279843
 H        -2.195452         3.727575         1.144725
 H        -0.364518         4.204386        -0.964220
 H        -0.701955         5.372502         0.331658
 H         1.719931         2.209941         0.873790
 H         1.306738         3.308795         2.504772
 H        -0.653423         2.187052         2.655718
