19
Iteration:  1887charge 0 multiplicity 1
 O         0.341514         0.394700         0.117685
 C        -0.645941         1.183911         0.660508
 C        -2.124170         1.039419         0.685572
 C        -1.516805         2.093861        -0.254122
 C        -1.363317         3.247204         0.747163
 C        -0.385961         4.299413         0.261091
 O         0.929348         3.724771         0.301757
 C         0.930617         3.037223         1.465869
 C        -0.388788         2.353340         1.627683
 H         0.063738        -0.509326         0.588418
 H        -2.519768         0.279091         0.066344
 H        -2.846042         1.298811         1.489593
 H        -1.494683         1.953204        -1.337950
 H        -2.323123         3.771228         1.126279
 H        -0.556547         4.629228        -0.795466
 H        -0.415793         5.263656         0.794294
 H         1.927173         2.298883         1.300248
 H         1.056965         3.657277         2.451490
 H        -0.676738         2.165871         2.763323
