19
Iteration:   652charge 0 multiplicity 1
 O         0.289568         0.225828         0.284939
 C        -0.691432         1.110195         0.707212
 C        -2.190340         1.035502         0.622697
 C        -1.483574         2.139807        -0.286990
 C        -1.289118         3.186114         0.765629
 C        -0.490678         4.405314         0.311874
 O         0.916580         4.002967         0.307715
 C         1.063045         2.977176         1.294501
 C        -0.338041         2.300081         1.551397
 H         0.158814        -0.645629         0.778541
 H        -2.416562         0.054636         0.171082
 H        -2.980679         1.208538         1.277816
 H        -1.435925         2.288939        -1.390278
 H        -2.170679         3.475051         1.396716
 H        -0.718032         4.745025        -0.770933
 H        -0.693396         5.328074         0.957152
 H         1.747526         2.255038         0.960914
 H         1.437080         3.364300         2.348499
 H        -0.570230         2.192366         2.677847
