19
Iteration:  2053charge 0 multiplicity 1
 O         0.297999         0.251803         0.180802
 C        -0.693706         1.177562         0.735511
 C        -2.220806         0.973761         0.575308
 C        -1.454758         2.060850        -0.207628
 C        -1.349979         3.286944         0.713297
 C        -0.459775         4.411856         0.157449
 O         0.905938         3.956418         0.388732
 C         1.055619         2.976263         1.424489
 C        -0.346628         2.300974         1.683449
 H         0.127779        -0.609588         0.468037
 H        -2.466536         0.120365        -0.089391
 H        -2.881088         1.343243         1.328539
 H        -1.214650         2.025816        -1.258617
 H        -2.217714         3.826892         1.139142
 H        -0.557846         4.463099        -0.947813
 H        -0.745420         5.438077         0.525597
 H         1.814450         2.179991         1.039664
 H         1.527529         3.287880         2.345666
 H        -0.398927         2.111773         2.846556
