19
Iteration:  3006
 O         0.297605         0.166312         0.209948
 C        -0.722281         1.155354         0.594724
 C        -2.203512         1.004306         0.414519
 C        -1.518484         2.135757        -0.216118
 C        -1.339971         3.244642         0.825307
 C        -0.431977         4.328455         0.237949
 O         0.973493         3.806073         0.288115
 C         0.953365         3.184426         1.582148
 C        -0.334299         2.298259         1.627754
 H         1.159568         0.664154         0.637188
 H        -2.291992         0.113325        -0.232327
 H        -2.852838         1.174980         1.249595
 H        -1.387263         2.247318        -1.301077
 H        -2.238512         3.577129         1.359976
 H        -0.541457         4.553839        -0.833189
 H        -0.500336         5.200607         0.919250
 H         1.801354         2.349772         1.806475
 H         0.870132         3.938188         2.411135
 H        -0.582331         2.169541         2.700616
