19
Iteration:   514
 O         0.279397         0.459931         0.113612
 C        -0.696274         1.207727         0.650156
 C        -2.061364         0.822355         0.685792
 C        -1.705585         2.083061        -0.151039
 C        -1.373582         3.272060         0.719412
 C        -0.316176         4.359475         0.270758
 O         1.002074         3.737854         0.204167
 C         1.015838         3.066075         1.497346
 C        -0.436863         2.328965         1.623553
 H         0.576390        -0.211526         0.783076
 H        -2.244946        -0.015099        -0.043272
 H        -2.810539         0.785005         1.471183
 H        -1.853406         2.145941        -1.240342
 H        -2.276489         3.760281         1.022300
 H        -0.425840         4.907868        -0.637700
 H        -0.312173         5.189661         1.071367
 H         1.888818         2.338402         1.377242
 H         1.257000         3.821964         2.376257
 H        -0.803036         2.208516         2.662204
