19
Iteration:  4152charge 0 multiplicity 1
 O         0.181630         0.225965         0.232149
 C        -0.779245         1.133863         0.696873
 C        -2.211739         0.906227         0.410874
 C        -1.573664         2.099325        -0.276168
 C        -1.218856         3.225442         0.649061
 C        -0.248503         4.176047        -0.047010
 O         0.799033         4.317814         0.969120
 C         1.108253         2.994135         1.339535
 C        -0.343147         2.308729         1.566476
 H         0.569749        -0.207106         0.998751
 H        -2.313225         0.011759        -0.240762
 H        -3.056781         0.870218         1.247522
 H        -1.530483         2.178976        -1.376318
 H        -2.071606         3.513038         1.340608
 H         0.044753         3.627478        -0.879943
 H        -0.372950         5.108736        -0.430234
 H         1.650049         2.441546         0.683212
 H         1.742071         3.112418         2.261249
 H        -0.550450         2.308422         2.610055
