19
Iteration:  2393
 O         0.311706         0.191062         0.294242
 C        -0.695598         1.215954         0.577539
 C        -2.101955         0.927611         0.566220
 C        -1.645509         2.167058        -0.195772
 C        -1.305219         3.259659         0.725668
 C        -0.404811         4.351665         0.232068
 O         0.955657         3.838292         0.276318
 C         0.984391         3.093825         1.512831
 C        -0.333971         2.308472         1.652077
 H         0.539356        -0.169160        -0.551911
 H        -2.436081         0.149242        -0.117299
 H        -2.613047         0.954906         1.454481
 H        -1.768520         2.368345        -1.239369
 H        -2.239930         3.763711         1.319348
 H        -0.669023         4.685133        -0.757915
 H        -0.568502         5.245827         0.875462
 H         1.838517         2.417642         1.591205
 H         0.952426         3.898327         2.261105
 H        -0.665495         2.091789         2.679983
