19
Iteration:  1070charge 0 multiplicity 1
 O         0.350892         0.395176         0.106178
 C        -0.680777         1.200429         0.600095
 C        -2.109803         0.926379         0.665010
 C        -1.662322         2.133053        -0.193525
 C        -1.346943         3.273023         0.766391
 C        -0.415073         4.295503         0.161563
 O         0.953278         3.839908         0.330254
 C         1.029475         2.962066         1.491208
 C        -0.381458         2.342421         1.667464
 H         0.421567        -0.492038         0.646217
 H        -2.410595         0.055340         0.137138
 H        -2.675482         1.153929         1.607417
 H        -1.772678         2.306196        -1.296672
 H        -2.198646         3.812394         1.381762
 H        -0.521378         4.355862        -0.953078
 H        -0.507497         5.279605         0.710440
 H         1.738874         2.208770         1.220067
 H         1.224211         3.519472         2.453448
 H        -0.747555         2.220962         2.693864
