19
Iteration:  4712
 O         0.197263         0.179199         0.395726
 C        -0.715578         1.185795         0.616342
 C        -2.198818         0.845511         0.511868
 C        -1.621642         2.068575        -0.256766
 C        -1.220846         3.144881         0.688873
 C        -0.274903         4.187431        -0.036984
 O         0.788479         4.348372         0.945176
 C         1.111274         2.997182         1.291680
 C        -0.290376         2.341038         1.513225
 H         0.093543        -0.083386        -0.525608
 H        -2.523041         0.115444        -0.238008
 H        -3.037496         1.062644         1.103090
 H        -1.731882         2.352958        -1.320512
 H        -1.965138         3.706090         1.167090
 H         0.128941         3.885933        -1.020909
 H        -0.711399         5.147424        -0.283919
 H         1.608278         2.605088         0.413166
 H         1.826994         3.028993         2.181861
 H        -0.325736         2.275666         2.657311
