19
Iteration:  1473
 O         0.293007         0.265349         0.313093
 C        -0.639171         1.246592         0.515489
 C        -2.154416         1.044486         0.566246
 C        -1.543111         2.099752        -0.268909
 C        -1.302529         3.159511         0.743892
 C        -0.430084         4.428442         0.352378
 O         0.910332         3.902251         0.260419
 C         1.002594         2.968556         1.382061
 C        -0.341273         2.247136         1.611561
 H         0.237817        -0.120063         1.285200
 H        -2.589239         0.158103         0.100162
 H        -2.718872         1.298998         1.601218
 H        -1.631199         2.191484        -1.372576
 H        -2.232085         3.559030         1.117738
 H        -0.912984         4.832546        -0.636314
 H        -0.558052         5.170781         1.203851
 H         1.760930         2.154224         1.178837
 H         1.511434         3.488610         2.322807
 H        -0.610004         2.023974         2.668162
