19
Iteration:  3202
 O         0.337863         0.270897         0.276456
 C        -0.644000         1.146631         0.575440
 C        -2.165157         0.899898         0.486236
 C        -1.563656         2.054688        -0.281272
 C        -1.361419         3.275229         0.639651
 C        -0.346584         4.452313         0.296830
 O         1.010532         3.950280         0.438018
 C         0.939532         2.993751         1.499650
 C        -0.493042         2.388454         1.564487
 H         0.462970        -0.400026         1.082126
 H        -2.359111         0.147576        -0.271757
 H        -2.748430         0.751521         1.395516
 H        -1.689704         1.882957        -1.339117
 H        -2.366514         3.745867         1.015449
 H        -0.530710         4.901729        -0.647508
 H        -0.453902         5.258565         1.104066
 H         1.715841         2.098128         1.344900
 H         1.308831         3.379745         2.432205
 H        -0.687006         1.944672         2.565817
