19
Iteration:  1335charge 0 multiplicity 1
 O         0.310516         0.513377         0.166642
 C        -0.710950         1.263119         0.758072
 C        -2.065301         0.890001         0.486045
 C        -1.552652         2.153402        -0.180692
 C        -1.397474         3.246036         0.805509
 C        -0.380444         4.283728         0.247901
 O         0.886719         3.606713         0.213126
 C         1.004139         3.015882         1.460935
 C        -0.373997         2.413404         1.710710
 H         0.331853        -0.321378         0.518120
 H        -2.227527         0.132941        -0.227392
 H        -2.863756         0.912426         1.249462
 H        -1.418458         2.117582        -1.298073
 H        -2.315648         3.737412         1.326910
 H        -0.628136         4.596215        -0.828114
 H        -0.255572         5.214956         0.870307
 H         1.825692         2.252593         1.318913
 H         1.399396         3.753425         2.224264
 H        -0.674688         2.268434         2.793292
