19
Iteration:  3510
 O         0.185006        -0.050640         0.284777
 C        -0.731058         1.135482         0.572327
 C        -2.247541         0.931957         0.694839
 C        -1.516611         1.933929        -0.335585
 C        -1.207501         3.221483         0.548781
 C        -0.364127         4.414546         0.138400
 O         0.902767         4.300242         0.719035
 C         1.064407         3.106259         1.442890
 C        -0.323402         2.287987         1.514979
 H         0.820155         0.500566        -0.100362
 H        -2.543462         0.153259        -0.021577
 H        -2.957045         1.306255         1.405522
 H        -1.517706         1.853745        -1.426400
 H        -2.118001         3.676126         1.030119
 H        -0.268389         4.567830        -0.921952
 H        -0.746868         5.512495         0.485344
 H         1.794920         2.288692         0.934866
 H         1.464620         3.261381         2.639847
 H        -0.815032         2.275995         2.499074
