19
Iteration:  3662charge 0 multiplicity 1
 O         0.117859         0.070592         0.327775
 C        -0.673196         1.145957         0.591807
 C        -2.195193         0.976094         0.574474
 C        -1.562546         1.985245        -0.317252
 C        -1.219070         3.214111         0.572987
 C        -0.328487         4.265369         0.050173
 O         0.846212         4.339585         0.885699
 C         1.113349         3.094822         1.434452
 C        -0.285434         2.278474         1.460917
 H         0.062532        -0.218279        -0.575727
 H        -2.598335         0.038518         0.179233
 H        -2.733239         1.260358         1.496000
 H        -1.521663         1.875235        -1.416647
 H        -2.103866         3.537255         1.176566
 H        -0.147025         4.198835        -1.065653
 H        -0.958886         5.262737         0.092735
 H         1.896254         2.429983         0.796972
 H         1.552024         3.207388         2.442256
 H        -0.459413         2.108289         2.562037
