19
Iteration:  2889
 O         0.174776         0.152071         0.246018
 C        -0.643492         1.162350         0.671945
 C        -2.037723         0.867532         0.518195
 C        -1.552533         2.177890        -0.233097
 C        -1.300978         3.328226         0.733145
 C        -0.419787         4.421324         0.272989
 O         0.919838         3.820124         0.340691
 C         0.938617         3.057664         1.457894
 C        -0.376432         2.332897         1.605412
 H         1.183643         0.449132         0.175787
 H        -2.329845         0.026572        -0.177457
 H        -2.676629         1.127452         1.414358
 H        -1.301797         2.051921        -1.283327
 H        -2.240452         3.778101         1.217510
 H        -0.558354         4.556324        -0.879318
 H        -0.573300         5.385188         0.835041
 H         1.919039         2.557794         1.462701
 H         1.022809         3.852970         2.334368
 H        -0.648177         2.245912         2.685157
