19
Iteration:  1203charge 0 multiplicity 1
 O         0.202608         0.169375         0.256932
 C        -0.669437         1.234085         0.659646
 C        -2.144880         0.909973         0.531752
 C        -1.555487         2.109016        -0.226883
 C        -1.280956         3.205778         0.762014
 C        -0.485559         4.398009         0.221766
 O         0.881982         4.001551         0.397727
 C         1.080888         2.993649         1.338187
 C        -0.266504         2.394446         1.610329
 H         0.074921        -0.538352         0.940535
 H        -2.082920         0.006274        -0.154139
 H        -2.894760         1.090014         1.338498
 H        -1.678826         2.234867        -1.272580
 H        -2.209024         3.695915         1.304860
 H        -0.516693         4.629216        -0.870972
 H        -0.552913         5.282582         0.937622
 H         1.863874         2.228782         1.081221
 H         1.489845         3.331126         2.312013
 H        -0.376255         2.142913         2.634343
