19
Iteration:  1661
 O         0.260834         0.253522         0.174743
 C        -0.595775         1.241007         0.577166
 C        -2.165032         0.884471         0.591430
 C        -1.676827         2.102019        -0.234231
 C        -1.337388         3.238047         0.752022
 C        -0.346849         4.361786         0.228368
 O         0.987501         3.929799         0.365841
 C         0.999501         3.039394         1.474592
 C        -0.374053         2.305284         1.612161
 H         0.373034        -0.440010         0.941524
 H        -2.452890        -0.102180         0.106984
 H        -2.895318         1.205952         1.480520
 H        -1.758897         2.357190        -1.284118
 H        -2.117944         3.848798         1.265255
 H        -0.569310         4.655923        -0.876135
 H        -0.385212         5.237747         0.825180
 H         1.763172         2.256528         1.395231
 H         1.300561         3.637305         2.319546
 H        -0.659912         2.118589         2.640567
