19
Iteration:  2232charge 0 multiplicity 1
 O         0.252589         0.265350         0.165081
 C        -0.668221         1.233813         0.669992
 C        -2.124079         0.866653         0.588234
 C        -1.535956         2.065453        -0.207079
 C        -1.311913         3.247871         0.660306
 C        -0.367272         4.405574         0.281522
 O         0.915944         3.876859         0.328753
 C         1.013926         3.054866         1.473946
 C        -0.348709         2.377910         1.643903
 H        -0.011638        -0.565151         0.490464
 H        -2.432231         0.077633        -0.186718
 H        -2.746446         0.930225         1.499203
 H        -1.727740         1.952183        -1.275075
 H        -2.142722         3.661870         1.124423
 H        -0.699938         4.791139        -0.693541
 H        -0.442467         5.219009         0.966478
 H         1.810893         2.426062         1.279875
 H         1.174771         3.670774         2.379266
 H        -0.755915         2.309841         2.669659
