19
Iteration:  4474charge 0 multiplicity 1
 O         0.271694         0.202482         0.335417
 C        -0.703679         1.188206         0.558280
 C        -2.163663         0.790895         0.504615
 C        -1.662310         2.063906        -0.251369
 C        -1.269504         3.271366         0.619583
 C        -0.220524         4.169583        -0.065334
 O         0.831305         4.300711         0.975973
 C         1.020641         2.966302         1.383463
 C        -0.336658         2.362562         1.591600
 H         0.106290        -0.042136        -0.525071
 H        -2.591241         0.114645        -0.225035
 H        -2.938093         1.196847         1.332373
 H        -1.711800         2.273996        -1.294994
 H        -2.058018         3.999141         1.125935
 H         0.115039         3.881518        -1.049358
 H        -0.705725         5.132542        -0.274362
 H         1.551514         2.317473         0.645185
 H         1.748372         2.915488         2.124986
 H        -0.527309         2.189001         2.592237
