19
Iteration:  4540
 O         0.209710         0.039034         0.359735
 C        -0.669731         1.124840         0.576129
 C        -2.074364         0.903956         0.603862
 C        -1.601166         2.046661        -0.346002
 C        -1.304821         3.268825         0.548165
 C        -0.344932         4.346766         0.142411
 O         0.937471         4.269121         0.824673
 C         0.970890         2.983268         1.417003
 C        -0.390092         2.354280         1.446123
 H         0.889024         0.146396        -0.418376
 H        -2.687613         0.120086         0.127690
 H        -2.731567         1.313455         1.446949
 H        -1.660004         1.991634        -1.414179
 H        -2.269605         3.697662         1.061431
 H        -0.089824         4.397315        -0.985204
 H        -0.646733         5.341089         0.473831
 H         1.783471         2.390194         0.862199
 H         1.409021         2.969374         2.372655
 H        -0.772821         2.136024         2.382233
