19
Iteration:  3699
 O         0.230264         0.169901         0.279591
 C        -0.704475         1.104343         0.608710
 C        -2.132408         0.923155         0.523138
 C        -1.606517         2.068983        -0.200698
 C        -1.231495         3.274447         0.662264
 C        -0.272811         4.185921        -0.041805
 O         0.842162         4.330886         0.924986
 C         1.006561         2.992171         1.324974
 C        -0.375117         2.329969         1.522120
 H        -0.206815        -0.614756         0.149247
 H        -2.482115         0.270927        -0.249024
 H        -2.622020         0.883224         1.454879
 H        -1.533453         2.055572        -1.294362
 H        -1.892648         3.933896         1.135764
 H         0.143564         3.776675        -1.004735
 H        -0.611565         5.236358        -0.062421
 H         1.593389         2.370371         0.513059
 H         1.624213         3.110865         2.294052
 H        -0.769810         2.205099         2.521392
