19
Iteration:  4674
 O         0.209402         0.041588         0.316486
 C        -0.657630         1.078984         0.586686
 C        -2.144074         0.928568         0.695315
 C        -1.500441         2.010938        -0.318396
 C        -1.204238         3.226025         0.518405
 C        -0.316149         4.358989         0.048184
 O         0.796393         4.365597         0.960692
 C         1.047366         3.014488         1.307850
 C        -0.326066         2.382581         1.477313
 H        -0.264092        -0.653512        -0.313718
 H        -2.721098         0.228755         0.064170
 H        -2.793801         1.516698         1.416438
 H        -1.862520         2.047505        -1.358143
 H        -2.214595         3.468342         1.082574
 H         0.097504         3.963475        -0.923488
 H        -0.849060         5.333497         0.245986
 H         1.557025         2.302105         0.471521
 H         1.601164         2.897811         2.243836
 H        -0.812433         2.160516         2.369398
