19
Iteration:  1970charge 0 multiplicity 1
 O         0.295790         0.350012         0.230954
 C        -0.647475         1.203700         0.726802
 C        -2.188059         1.042360         0.488516
 C        -1.410129         2.074823        -0.193235
 C        -1.406266         3.216332         0.716724
 C        -0.426590         4.344240         0.260052
 O         0.867135         3.800225         0.260182
 C         1.029417         2.984172         1.423594
 C        -0.339523         2.332903         1.686370
 H         0.178156        -0.543051         0.611065
 H        -2.519586         0.081346         0.106241
 H        -2.805627         1.388817         1.346383
 H        -1.359473         2.238843        -1.266484
 H        -2.286781         3.780319         0.979870
 H        -0.558671         4.733976        -0.743648
 H        -0.549187         5.111985         1.017227
 H         1.785537         2.356223         1.155325
 H         1.207585         3.525802         2.359735
 H        -0.423448         2.310711         2.755006
