19
Iteration:  4747
 O         0.346986         0.261193         0.310003
 C        -0.685471         1.176843         0.574050
 C        -2.145735         0.859891         0.673923
 C        -1.587458         2.009930        -0.274252
 C        -1.289720         3.240261         0.643110
 C        -0.274092         4.311091        -0.041052
 O         0.890653         4.231253         0.853259
 C         0.941746         2.862540         1.350653
 C        -0.427287         2.370771         1.547292
 H         0.096169        -0.087404        -0.583182
 H        -2.528156         0.031255        -0.027409
 H        -2.803617         1.373907         1.447250
 H        -1.779641         2.162276        -1.383051
 H        -2.130222         3.671433         1.087910
 H         0.035564         4.089000        -1.073082
 H        -0.680449         5.322366         0.202574
 H         1.526159         2.210148         0.688132
 H         1.538920         2.813974         2.224213
 H        -0.846141         2.341617         2.636348
