19
Iteration:  2407
 O         0.274866         0.234347         0.276788
 C        -0.631789         1.169644         0.648065
 C        -2.151650         0.901860         0.569962
 C        -1.587656         2.062004        -0.215646
 C        -1.345637         3.247691         0.759231
 C        -0.358794         4.373781         0.285579
 O         0.962852         3.835227         0.263857
 C         0.995852         3.099803         1.516084
 C        -0.385790         2.395105         1.538297
 H         0.173960         0.483455        -0.685020
 H        -2.371751         0.029122         0.007860
 H        -2.888070         1.060032         1.458691
 H        -1.697830         1.984199        -1.303291
 H        -2.223068         3.667492         1.256415
 H        -0.553126         4.747432        -0.776387
 H        -0.330123         5.154433         1.089171
 H         1.893724         2.599531         1.521341
 H         1.095265         3.718658         2.462806
 H        -0.702085         2.209032         2.589654
