19
Iteration:  3042charge 0 multiplicity 1
 O         0.287714         0.285187         0.337358
 C        -0.667688         1.291952         0.582531
 C        -2.090376         0.852009         0.528422
 C        -1.543056         2.124220        -0.273534
 C        -1.419783         3.305268         0.675693
 C        -0.397286         4.408090         0.232539
 O         1.001991         3.820105         0.422920
 C         0.954373         2.958915         1.527041
 C        -0.421350         2.347226         1.604344
 H         0.519386         0.267376        -0.685389
 H        -2.053826        -0.115530         0.017358
 H        -2.805377         0.789138         1.389709
 H        -1.472194         2.177208        -1.339284
 H        -2.395728         3.759693         1.208358
 H        -0.516160         4.899511        -0.824952
 H        -0.553098         5.278456         0.900864
 H         1.553710         2.111546         1.207404
 H         1.527388         3.424603         2.351332
 H        -0.806026         2.044089         2.585097
