19
Iteration:  1513
 O         0.271112         0.384367         0.226191
 C        -0.696285         1.219402         0.757823
 C        -2.098065         0.823346         0.384444
 C        -1.511490         2.094728        -0.127970
 C        -1.322250         3.327055         0.825416
 C        -0.400051         4.417234         0.301349
 O         0.945265         3.779137         0.121635
 C         0.978477         2.947540         1.393834
 C        -0.424503         2.420695         1.797608
 H         0.069111        -0.524261         0.400946
 H        -2.241067         0.095046        -0.380804
 H        -2.818508         0.757879         1.141580
 H        -1.386605         2.127738        -1.230278
 H        -2.313183         3.639125         1.310027
 H        -0.614298         4.902192        -0.563927
 H        -0.289526         5.158803         1.091785
 H         1.700462         2.163362         1.083961
 H         1.289096         3.512241         2.179353
 H        -0.556125         2.328914         2.897473
