19
Iteration:   258charge 0 multiplicity 1
 O         0.247148         0.260109         0.138258
 C        -0.701657         1.225980         0.563317
 C        -2.086197         0.825432         0.645392
 C        -1.734090         2.122074        -0.137382
 C        -1.334937         3.289594         0.755167
 C        -0.401784         4.337378         0.179660
 O         1.010183         3.891012         0.363180
 C         1.024745         3.100086         1.502347
 C        -0.239767         2.353509         1.551110
 H         0.292351        -0.375724         0.921064
 H        -2.218813         0.082938        -0.131414
 H        -2.764754         0.721366         1.524429
 H        -2.291683         2.264455        -1.049027
 H        -2.217952         3.572184         1.246933
 H        -0.541948         4.445727        -0.958736
 H        -0.524836         5.298932         0.587693
 H         1.961634         2.533781         1.583142
 H         0.961287         3.699114         2.388747
 H        -0.471715         2.066535         2.630760
