19
Iteration:  2265charge 0 multiplicity 1
 O         0.232316         0.227788         0.168705
 C        -0.674637         1.207098         0.694783
 C        -2.180682         0.953872         0.450295
 C        -1.468183         2.088584        -0.172012
 C        -1.304984         3.240863         0.805218
 C        -0.416487         4.385145         0.255794
 O         0.917835         3.879162         0.242175
 C         1.005316         3.099454         1.453039
 C        -0.330261         2.274164         1.732345
 H         0.488015        -0.336230         0.919781
 H        -2.322195         0.220108        -0.430845
 H        -2.892445         1.071445         1.307483
 H        -1.551565         2.134289        -1.249025
 H        -2.214502         3.516478         1.187968
 H        -0.780949         4.531979        -0.800285
 H        -0.539141         5.273521         0.794712
 H         1.836100         2.500920         1.366781
 H         1.134850         3.740332         2.372914
 H        -0.509815         2.415685         2.806768
