19
Iteration:  3120charge 0 multiplicity 1
 O         0.302857         0.214569         0.332692
 C        -0.570588         1.311094         0.553310
 C        -2.024840         0.853411         0.352983
 C        -1.595114         2.213352        -0.201656
 C        -1.375855         3.287440         0.809392
 C        -0.419383         4.344563         0.217300
 O         0.917329         3.776086         0.300353
 C         0.984062         3.021877         1.625218
 C        -0.376907         2.370258         1.681597
 H        -0.250110        -0.545288        -0.068623
 H        -2.160139         0.135025        -0.480439
 H        -2.922110         0.788701         1.004559
 H        -1.706365         2.518344        -1.280280
 H        -2.343073         3.851877         1.145699
 H        -0.666286         4.652382        -0.885330
 H        -0.544099         5.267155         0.854422
 H         1.803872         2.415449         1.622778
 H         1.085846         3.915179         2.292798
 H        -0.657131         2.094730         2.704748
