19
Iteration:  4157charge 0 multiplicity 1
 O         0.191435         0.237388         0.257077
 C        -0.784386         1.137598         0.654936
 C        -2.226271         0.867405         0.408948
 C        -1.582818         2.094723        -0.269384
 C        -1.276661         3.183142         0.694214
 C        -0.232525         4.204864        -0.028074
 O         0.822270         4.319839         0.954683
 C         1.116361         2.985957         1.348158
 C        -0.360095         2.335260         1.536829
 H         0.677327        -0.240821         1.028066
 H        -2.286229        -0.006897        -0.216244
 H        -2.881690         1.056506         1.222657
 H        -1.535180         2.247016        -1.333728
 H        -2.078440         3.652276         1.236689
 H         0.202054         3.566720        -0.937359
 H        -0.409473         5.305541        -0.470484
 H         1.752945         2.275902         0.590393
 H         1.742647         3.050274         2.218025
 H        -0.650082         2.260431         2.638288
