19
Iteration:  3247charge 0 multiplicity 1
 O         0.259885         0.195350         0.274011
 C        -0.600904         1.218214         0.596394
 C        -2.080385         0.926003         0.464238
 C        -1.373508         2.208574        -0.247278
 C        -1.405623         3.225606         0.772794
 C        -0.423356         4.317142         0.194897
 O         0.927980         3.864203         0.397583
 C         0.894236         3.145351         1.558267
 C        -0.370152         2.280437         1.653823
 H        -0.274387        -0.466493        -0.340797
 H        -2.370375         0.184648        -0.300678
 H        -2.832011         1.254233         1.173664
 H        -1.446838         2.445608        -1.325731
 H        -2.430136         3.537993         1.255124
 H        -0.506237         4.261371        -0.895886
 H        -0.677723         5.348048         0.542842
 H         1.926279         2.468498         1.523216
 H         1.096486         3.723901         2.451627
 H        -0.557231         2.203365         2.751398
