19
Iteration:  3470
 O         0.194407         0.087797         0.364768
 C        -0.670523         1.228261         0.532801
 C        -2.125264         0.911681         0.461137
 C        -1.572274         2.115286        -0.279249
 C        -1.278610         3.276547         0.763571
 C        -0.386132         4.306827         0.080948
 O         0.892413         4.148023         0.628956
 C         1.053924         2.954207         1.435990
 C        -0.388882         2.391466         1.639341
 H         1.216882         0.174213         0.104528
 H        -2.135299        -0.062656        -0.089766
 H        -2.898650         0.815937         1.214959
 H        -1.755217         2.181637        -1.388576
 H        -2.224440         3.742605         1.233011
 H        -0.360582         3.962863        -1.002448
 H        -0.705703         5.290428         0.129712
 H         1.653056         2.329790         0.859930
 H         1.430920         3.314901         2.279692
 H        -0.593057         2.046630         2.653507
