19
Iteration:   716charge 0 multiplicity 1
 O         0.418515         0.360686         0.243587
 C        -0.708435         1.224238         0.538229
 C        -2.223453         0.952045         0.649275
 C        -1.571082         2.160272        -0.185026
 C        -1.337936         3.262510         0.783725
 C        -0.386089         4.344577         0.252596
 O         0.911112         3.789016         0.235971
 C         0.969155         3.019858         1.417252
 C        -0.319205         2.236797         1.606674
 H         0.306352        -0.430561         0.742907
 H        -2.536058         0.076643         0.016124
 H        -2.836626         1.256209         1.476442
 H        -1.782403         2.393804        -1.234089
 H        -2.289416         3.644255         1.321477
 H        -0.633830         4.787464        -0.736773
 H        -0.420127         5.176044         1.022134
 H         1.864208         2.485986         1.409311
 H         1.167351         3.647978         2.325925
 H        -0.571852         1.934576         2.710335
