19
Iteration:  2774charge 0 multiplicity 1
 O         0.321137         0.280770         0.340439
 C        -0.685315         1.149656         0.668257
 C        -2.172868         0.974136         0.570948
 C        -1.544248         2.110106        -0.214768
 C        -1.267085         3.214816         0.716301
 C        -0.394040         4.361582         0.224638
 O         0.907354         3.921739         0.303404
 C         0.983091         3.047285         1.442692
 C        -0.368611         2.268713         1.570670
 H         0.398650        -0.078054        -0.638992
 H        -2.446304         0.033783         0.103318
 H        -2.689243         1.273778         1.446569
 H        -1.535921         2.215480        -1.291574
 H        -2.183812         3.635581         1.327770
 H        -0.677841         4.558405        -0.769125
 H        -0.642200         5.274622         0.885546
 H         1.707804         2.290731         1.338297
 H         1.164837         3.556025         2.472965
 H        -0.747915         2.255657         2.572039
