19
Iteration:  1355charge 0 multiplicity 1
 O         0.383688         0.367096         0.233509
 C        -0.693910         1.261424         0.604136
 C        -2.148641         0.768582         0.474044
 C        -1.714040         2.103531        -0.121308
 C        -1.315717         3.379951         0.832465
 C        -0.346076         4.397600         0.261512
 O         0.942245         3.718734         0.159160
 C         1.013616         3.000680         1.495144
 C        -0.402619         2.402247         1.663634
 H         0.365224        -0.393921         0.856851
 H        -2.144200        -0.055848        -0.260093
 H        -2.938356         0.625320         1.295575
 H        -1.871017         2.296841        -1.211689
 H        -2.207661         3.862826         1.312785
 H        -0.445644         4.951469        -0.785555
 H        -0.232118         5.199249         0.963475
 H         1.829849         2.252149         1.473527
 H         1.132730         3.819200         2.278578
 H        -0.801026         2.073910         2.759055
