19
Iteration:  3159charge 0 multiplicity 1
 O         0.354177         0.330846         0.211147
 C        -0.667649         1.205064         0.683937
 C        -2.189068         1.003194         0.395405
 C        -1.452337         2.054041        -0.262024
 C        -1.354433         3.283910         0.665978
 C        -0.413622         4.325587         0.322795
 O         0.936813         3.857309         0.294531
 C         0.932417         2.978434         1.538207
 C        -0.404744         2.304302         1.704031
 H         0.614638        -0.167880         1.052048
 H        -2.431225         0.200850        -0.280096
 H        -2.881472         1.237500         1.205923
 H        -1.417816         2.013919        -1.332791
 H        -2.301466         3.602789         1.081259
 H        -0.600945         4.876810        -0.590495
 H        -0.531574         5.170894         1.032544
 H         1.872117         2.218284         1.487729
 H         1.103691         3.532023         2.437135
 H        -0.874040         2.222190         2.717484
