19
Iteration:  4594
 O         0.211857         0.158393         0.310225
 C        -0.742480         1.158827         0.678978
 C        -2.222730         0.930735         0.402891
 C        -1.423626         2.020168        -0.293926
 C        -1.309307         3.308555         0.759350
 C        -0.369283         4.253474         0.061989
 O         0.827724         4.284310         0.873341
 C         1.083233         2.888827         1.230400
 C        -0.347050         2.392124         1.587281
 H         1.005194         0.134108         0.975888
 H        -2.250460        -0.028242        -0.225449
 H        -2.977498         1.031176         1.227247
 H        -1.504150         2.031310        -1.374087
 H        -2.277772         3.625892         1.206001
 H        -0.095973         3.836128        -0.980660
 H        -0.560342         5.261933        -0.218804
 H         1.454705         2.395852         0.225493
 H         1.757295         2.862167         2.049087
 H        -0.608390         2.121400         2.569898
