19
Iteration:  4986charge 0 multiplicity 1
 O         0.464665         0.385666         0.495804
 C        -0.649692         1.197199         0.601644
 C        -2.079810         0.928094         0.443172
 C        -1.567581         2.096234        -0.278330
 C        -1.362592         3.313058         0.615394
 C        -0.380731         4.385447         0.398867
 O         0.893103         3.787916         0.323907
 C         0.886546         2.902178         1.411930
 C        -0.525502         2.321669         1.567354
 H         0.565604        -0.097837        -0.362343
 H        -2.354731         0.074094        -0.075539
 H        -2.735768         1.218351         1.207132
 H        -1.533571         2.155176        -1.343057
 H        -2.209564         3.812250         1.197095
 H        -0.455335         5.047074        -0.564054
 H        -0.366983         5.234784         1.181781
 H         1.651776         2.173106         1.148296
 H         1.256228         3.470066         2.276835
 H        -0.777514         2.178552         2.595213
