19
Iteration:  3865
 O         0.309470         0.246247         0.397122
 C        -0.719485         1.111707         0.695594
 C        -2.203063         0.935430         0.610133
 C        -1.605499         2.001496        -0.388312
 C        -1.260282         3.246869         0.482652
 C        -0.215495         4.391242         0.054820
 O         0.795968         4.223881         1.097784
 C         1.126638         2.839502         1.202719
 C        -0.429562         2.374726         1.429451
 H         0.053921        -0.385182        -0.401253
 H        -2.503654         0.079373         0.006563
 H        -3.018492         1.088689         1.330946
 H        -1.944554         1.832002        -1.421652
 H        -1.995675         3.730663         1.000834
 H         0.253669         4.134298        -0.940867
 H        -0.500763         5.404908         0.099330
 H         1.403812         2.388036         0.288947
 H         1.646757         2.766540         2.154718
 H        -0.789662         2.413607         2.445377
