19
Iteration:   377
 O         0.265717         0.276481         0.303403
 C        -0.654232         1.259041         0.661315
 C        -2.116885         0.970067         0.488509
 C        -1.435109         2.112920        -0.187429
 C        -1.393074         3.257162         0.891947
 C        -0.440615         4.343256         0.323370
 O         0.804813         3.825385         0.213380
 C         1.083643         2.983344         1.310329
 C        -0.331065         2.359549         1.609878
 H         0.116798        -0.441727         0.831217
 H        -2.162147         0.126497        -0.270482
 H        -3.027726         0.985297         1.119603
 H        -1.322393         2.319877        -1.272851
 H        -2.271602         3.639609         1.402788
 H        -0.689046         4.917758        -0.637966
 H        -0.503514         5.154217         1.134781
 H         1.795596         2.236360         0.888077
 H         1.483014         3.587791         2.227865
 H        -0.490834         2.192672         2.620497
