19
Iteration:  3877
 O         0.357958         0.259477         0.461875
 C        -0.769897         1.110518         0.582936
 C        -2.233462         0.923530         0.517892
 C        -1.653543         1.995883        -0.297383
 C        -1.298896         3.282129         0.520374
 C        -0.189275         4.376101         0.086055
 O         0.830200         4.254689         1.034314
 C         0.999995         2.834005         1.225954
 C        -0.338106         2.310491         1.436312
 H         0.137748        -0.462999        -0.050499
 H        -2.639935         0.176349        -0.165333
 H        -2.791114         1.251971         1.452988
 H        -1.684958         2.041910        -1.373437
 H        -2.173762         3.628926         0.919750
 H         0.247272         4.149123        -0.952498
 H        -0.582032         5.367003         0.038464
 H         1.577678         2.460047         0.407719
 H         1.806392         2.625353         1.926799
 H        -0.502556         2.330279         2.516402
