19
Iteration:  2471
 O         0.302618         0.243876         0.350616
 C        -0.696859         1.230227         0.584432
 C        -2.119619         0.886403         0.474702
 C        -1.729764         2.189637        -0.188800
 C        -1.328310         3.310936         0.824806
 C        -0.391002         4.315245         0.185306
 O         0.922420         3.827587         0.236019
 C         1.042822         3.064996         1.511065
 C        -0.324623         2.240807         1.618270
 H         1.139483         0.681365         0.369899
 H        -2.320471         0.187411        -0.277797
 H        -2.535860         0.897652         1.462983
 H        -1.747171         2.367142        -1.274462
 H        -2.251726         3.840775         1.501388
 H        -0.705914         4.541856        -0.869771
 H        -0.457186         5.240037         0.754726
 H         1.935725         2.384762         1.383159
 H         1.280795         3.729885         2.373848
 H        -0.763674         1.891176         2.561053
