19
Iteration:  2940charge 0 multiplicity 1
 O         0.399808         0.411369         0.316568
 C        -0.690780         1.166334         0.664860
 C        -2.163054         0.958374         0.561686
 C        -1.559369         2.118203        -0.253602
 C        -1.281384         3.233947         0.703124
 C        -0.393362         4.390071         0.184771
 O         0.927809         3.909969         0.405671
 C         0.928563         2.850611         1.480209
 C        -0.416787         2.337619         1.560669
 H         0.097499        -0.342612        -0.174780
 H        -2.261784         0.103491        -0.100217
 H        -2.798271         1.128376         1.415326
 H        -1.730199         2.038883        -1.355428
 H        -2.191671         3.609563         1.257916
 H        -0.520377         4.558801        -0.883590
 H        -0.655755         5.232629         0.831816
 H         1.705986         2.161840         1.186553
 H         1.343718         3.320312         2.337294
 H        -0.700023         2.166153         2.605316
