19
Iteration:  4082charge 0 multiplicity 1
 O         0.250603         0.113350         0.281720
 C        -0.720489         1.134101         0.519354
 C        -2.168805         0.921954         0.645347
 C        -1.687678         2.017862        -0.380409
 C        -1.179141         3.239937         0.516330
 C        -0.249089         4.377183        -0.005710
 O         0.811693         4.279348         0.967023
 C         1.039757         2.990800         1.497134
 C        -0.305471         2.291442         1.450235
 H        -0.039387        -0.739722         0.370668
 H        -2.564828         0.061376         0.163223
 H        -2.542862         1.128691         1.581155
 H        -2.022945         1.900946        -1.412759
 H        -1.934400         3.845050         1.108759
 H         0.156409         4.284965        -0.967909
 H        -0.629146         5.438556        -0.145870
 H         1.784540         2.477046         0.940853
 H         1.444474         3.042002         2.518769
 H        -0.788655         2.381507         2.463839
