19
Iteration:  2306
 O         0.355692         0.323312         0.292820
 C        -0.628974         1.216425         0.563547
 C        -2.117557         0.932518         0.549826
 C        -1.555439         2.107295        -0.219366
 C        -1.365298         3.279015         0.727031
 C        -0.351295         4.393776         0.348129
 O         0.894548         3.832426         0.239418
 C         0.974585         2.930923         1.403310
 C        -0.429651         2.371109         1.650013
 H         0.225158        -0.433374         0.978857
 H        -2.359481         0.076431        -0.128386
 H        -2.685560         0.984155         1.413460
 H        -1.939912         2.119804        -1.253502
 H        -2.263093         3.777829         1.110887
 H        -0.556224         4.943692        -0.570609
 H        -0.382581         5.224542         1.164787
 H         1.728175         2.207188         1.143795
 H         1.302309         3.604252         2.231923
 H        -0.773376         2.005471         2.605822
