19
Iteration:  3091
 O         0.428201         0.344267         0.327165
 C        -0.674017         1.210093         0.582122
 C        -2.176216         0.936766         0.525337
 C        -1.523015         2.089958        -0.278759
 C        -1.354284         3.276007         0.742777
 C        -0.378220         4.405146         0.286895
 O         0.939104         3.822266         0.344730
 C         0.928140         2.912908         1.544540
 C        -0.420804         2.312645         1.564277
 H         0.271055        -0.108888        -0.455090
 H        -2.641767         0.145826        -0.060889
 H        -2.852515         1.366973         1.243257
 H        -1.537731         2.144086        -1.388223
 H        -2.280837         3.689877         1.137509
 H        -0.617050         4.684522        -0.681575
 H        -0.539175         5.348729         0.841481
 H         1.851069         2.281222         1.561856
 H         0.989651         3.649242         2.322816
 H        -0.718516         2.180140         2.618041
