19
Iteration:  2083
 O         0.290073         0.301856         0.204591
 C        -0.724118         1.236218         0.673454
 C        -2.143382         0.807402         0.562806
 C        -1.607071         2.020802        -0.239846
 C        -1.330895         3.360729         0.747139
 C        -0.371879         4.422851         0.273951
 O         0.989396         3.853489         0.334843
 C         0.994262         3.037444         1.409448
 C        -0.409035         2.390104         1.612835
 H         0.363694        -0.494277         0.880355
 H        -2.155557        -0.101876        -0.101885
 H        -2.848316         0.982368         1.357132
 H        -1.490350         2.202824        -1.294033
 H        -2.296342         3.724281         1.299086
 H        -0.512773         4.659898        -0.794117
 H        -0.517146         5.251798         0.954054
 H         1.678776         2.126652         0.987896
 H         1.494299         3.371810         2.342090
 H        -0.472891         2.262634         2.746116
