19
Iteration:  4750
 O         0.329443         0.282545         0.300222
 C        -0.677087         1.182067         0.579015
 C        -2.130073         0.873542         0.657873
 C        -1.592401         2.001638        -0.268172
 C        -1.288277         3.229263         0.619097
 C        -0.251405         4.296443        -0.037202
 O         0.893092         4.215833         0.855793
 C         0.946105         2.879750         1.330014
 C        -0.433800         2.364739         1.565995
 H         0.154982        -0.119774        -0.518484
 H        -2.547469         0.045517         0.063950
 H        -2.726413         1.337354         1.574148
 H        -1.798393         2.080798        -1.322847
 H        -2.231794         3.688517         1.090671
 H        -0.028465         4.273543        -1.147070
 H        -0.735112         5.283330         0.289678
 H         1.544110         2.163295         0.799490
 H         1.423270         2.794930         2.276480
 H        -0.875897         2.333180         2.551689
