19
Iteration:  4720charge 0 multiplicity 1
 O         0.241637         0.204240         0.385483
 C        -0.724003         1.137457         0.613067
 C        -2.204850         0.891338         0.471953
 C        -1.620535         2.045794        -0.212305
 C        -1.309274         3.204231         0.677356
 C        -0.262657         4.166797        -0.038937
 O         0.826849         4.332619         0.927954
 C         1.086498         2.992101         1.243190
 C        -0.320013         2.325747         1.551820
 H         0.120021        -0.036656        -0.582673
 H        -2.400022         0.162513        -0.242882
 H        -2.765408         1.033858         1.409421
 H        -1.658378         2.171796        -1.265597
 H        -2.182483         3.858226         1.085729
 H         0.282680         3.744917        -0.948817
 H        -0.661769         5.172355         0.080191
 H         1.785772         2.507478         0.388231
 H         1.691655         3.066296         2.278418
 H        -0.447152         2.351465         2.630810
