19
Iteration:  3926charge 0 multiplicity 1
 O         0.184935         0.060712         0.303263
 C        -0.714985         1.173219         0.686442
 C        -2.199521         0.901965         0.385148
 C        -1.423177         2.056000        -0.298884
 C        -1.260736         3.301317         0.699331
 C        -0.395317         4.345719         0.044546
 O         0.849859         4.247757         0.830329
 C         1.100524         2.973998         1.321766
 C        -0.351553         2.326059         1.588015
 H        -0.356855        -0.743920         0.718676
 H        -2.176470         0.061404        -0.330135
 H        -3.050547         0.997723         1.049775
 H        -1.157017         2.270002        -1.350751
 H        -2.181404         3.866350         1.143229
 H        -0.091237         4.353262        -1.038725
 H        -0.920461         5.350835         0.308599
 H         1.850400         2.414269         0.752304
 H         1.585641         3.071854         2.298665
 H        -0.513935         2.264439         2.703357
