19
Iteration:  4568charge 0 multiplicity 1
 O         0.211500         0.136265         0.328611
 C        -0.736500         1.122143         0.651801
 C        -2.150780         0.873120         0.536210
 C        -1.622534         2.020689        -0.360286
 C        -1.224194         3.288459         0.580333
 C        -0.327730         4.349534         0.107080
 O         0.886299         4.264171         0.824800
 C         1.032055         2.940250         1.350669
 C        -0.349159         2.326996         1.529436
 H         1.143528         0.336539         0.721103
 H        -2.380180         0.059508        -0.082113
 H        -2.944369         1.094669         1.248778
 H        -1.763789         1.893471        -1.444304
 H        -2.062624         3.692515         1.057917
 H        -0.194495         4.450129        -0.946845
 H        -0.666161         5.381826         0.336201
 H         1.541251         2.445368         0.561980
 H         1.725673         2.932578         2.298111
 H        -0.813178         2.031633         2.560429
