19
Iteration:  3248charge 0 multiplicity 1
 O         0.260925         0.187913         0.270037
 C        -0.588926         1.215733         0.596123
 C        -2.082672         0.922939         0.464839
 C        -1.369506         2.211584        -0.250382
 C        -1.415207         3.234633         0.772836
 C        -0.422125         4.313887         0.201679
 O         0.925742         3.861521         0.395462
 C         0.896397         3.141832         1.558034
 C        -0.377465         2.291833         1.659057
 H        -0.247516        -0.446203        -0.347636
 H        -2.398745         0.159544        -0.276874
 H        -2.829908         1.269614         1.170835
 H        -1.454051         2.445853        -1.332176
 H        -2.379533         3.535008         1.257075
 H        -0.537506         4.285254        -0.927110
 H        -0.661194         5.349985         0.533169
 H         1.935368         2.482002         1.541121
 H         1.090835         3.707382         2.443430
 H        -0.573129         2.200905         2.761834
