19
Iteration:  3485charge 0 multiplicity 1
 O         0.106497         0.047874         0.349083
 C        -0.623649         1.185369         0.630310
 C        -2.043699         0.931693         0.503199
 C        -1.577212         2.101145        -0.278270
 C        -1.359311         3.208678         0.663888
 C        -0.405136         4.276723         0.100983
 O         0.936569         4.223885         0.665701
 C         1.029276         3.039729         1.433009
 C        -0.325821         2.307221         1.502034
 H         0.919148         0.389311         0.072562
 H        -2.382070         0.099036        -0.115060
 H        -2.653527         1.245607         1.425642
 H        -1.605268         2.263842        -1.337766
 H        -2.141295         3.621793         1.210316
 H        -0.249258         4.300494        -1.014187
 H        -0.783405         5.335566         0.294960
 H         1.757955         2.243836         0.980056
 H         1.374981         3.148267         2.529885
 H        -0.656108         2.171474         2.559810
