19
Iteration:   938charge 0 multiplicity 1
 O         0.383257         0.344629         0.355971
 C        -0.742278         1.178833         0.719553
 C        -2.163755         0.848511         0.492826
 C        -1.574123         2.048456        -0.194791
 C        -1.301472         3.273581         0.732520
 C        -0.367651         4.398014         0.475964
 O         0.910343         3.898160         0.166547
 C         1.045848         2.966111         1.252804
 C        -0.435819         2.404338         1.601607
 H         0.021977        -0.601644         0.466523
 H        -2.369753         0.176184        -0.363469
 H        -2.995618         0.876862         1.093317
 H        -1.532752         2.031874        -1.272693
 H        -2.230342         3.786545         1.220100
 H        -0.640485         5.109480        -0.351850
 H        -0.316816         4.981661         1.404650
 H         1.707360         2.218880         1.011471
 H         1.275337         3.497314         2.206314
 H        -0.529812         2.400156         2.745891
