19
Iteration:  3930
 O         0.159523         0.062162         0.292231
 C        -0.755003         1.119259         0.666976
 C        -2.176598         0.899408         0.390748
 C        -1.407092         2.042222        -0.290207
 C        -1.229523         3.273909         0.701165
 C        -0.380539         4.395496         0.065138
 O         0.856533         4.278145         0.804429
 C         1.105124         2.966460         1.361807
 C        -0.359535         2.341752         1.587052
 H        -0.230690        -0.647151         0.736632
 H        -2.216900         0.061928        -0.255439
 H        -3.061547         1.084490         0.952852
 H        -1.222219         2.183459        -1.362297
 H        -2.181560         3.702223         1.165984
 H        -0.213799         4.200203        -1.001722
 H        -0.824981         5.300664         0.345605
 H         1.802025         2.425219         0.607003
 H         1.622922         3.289028         2.360227
 H        -0.683401         2.274712         2.621347
