19
Iteration:  1022charge 0 multiplicity 1
 O         0.204638         0.317583         0.099627
 C        -0.655004         1.201747         0.630181
 C        -2.187001         0.863050         0.640016
 C        -1.663391         1.987919        -0.192734
 C        -1.309363         3.198922         0.728861
 C        -0.396917         4.378960         0.242335
 O         1.049989         3.895360         0.300784
 C         1.039013         3.131781         1.534804
 C        -0.330978         2.388870         1.577533
 H         0.338434        -0.362299         0.702306
 H        -2.227105        -0.064352         0.032091
 H        -2.852165         0.965999         1.469983
 H        -1.870040         2.094356        -1.232944
 H        -2.110687         3.689524         1.221508
 H        -0.594596         4.778086        -0.755896
 H        -0.503397         5.120284         1.039531
 H         1.887486         2.435741         1.587536
 H         1.054545         3.718209         2.480779
 H        -0.539044         2.177454         2.594225
