19
Iteration:  4289charge 0 multiplicity 1
 O         0.278361         0.167161         0.420883
 C        -0.732923         1.150420         0.618758
 C        -2.190952         0.956046         0.465833
 C        -1.585364         2.032096        -0.322601
 C        -1.261428         3.205163         0.577655
 C        -0.255666         4.336178         0.098947
 O         0.834802         4.308670         0.991150
 C         1.046041         2.899403         1.249762
 C        -0.361475         2.348902         1.478207
 H        -0.178528        -0.670833         0.228475
 H        -2.347678         0.046893        -0.157026
 H        -2.957820         0.978925         1.271217
 H        -1.432004         2.101342        -1.407135
 H        -2.172260         3.589557         1.024392
 H        -0.074778         4.184634        -0.947734
 H        -0.572895         5.440863         0.075107
 H         1.430863         2.422461         0.333024
 H         1.807080         2.797183         1.950019
 H        -0.601959         2.146838         2.560698
