19
Iteration:  1893
 O         0.327088         0.394820         0.154797
 C        -0.643498         1.241850         0.629841
 C        -2.128535         0.990913         0.661349
 C        -1.529965         2.112555        -0.232981
 C        -1.360213         3.241582         0.718881
 C        -0.373532         4.318819         0.252784
 O         0.930195         3.726561         0.252441
 C         0.972912         3.024904         1.491117
 C        -0.423046         2.329689         1.668444
 H         0.270635        -0.514389         0.515918
 H        -2.569720         0.138847         0.084191
 H        -2.799331         1.273366         1.462114
 H        -1.656255         2.004461        -1.311969
 H        -2.177282         3.766809         1.138243
 H        -0.511166         4.688769        -0.748612
 H        -0.450302         5.139193         1.032520
 H         1.766815         2.412049         1.454160
 H         1.078404         3.615779         2.381153
 H        -0.622210         2.181896         2.684162
