19
Iteration:  1681
 O         0.256036         0.338821         0.176800
 C        -0.728428         1.131111         0.705623
 C        -2.170115         0.835880         0.575947
 C        -1.519196         2.094275        -0.165664
 C        -1.298807         3.262435         0.669679
 C        -0.362864         4.480092         0.328566
 O         0.965306         3.841289         0.300100
 C         1.004384         2.991538         1.454271
 C        -0.365087         2.418303         1.564995
 H         0.167382        -0.682921         0.427579
 H        -2.531007         0.134075        -0.279780
 H        -2.952565         0.793533         1.504519
 H        -1.543618         1.795889        -1.172581
 H        -2.274297         3.718473         1.141388
 H        -0.589922         4.837704        -0.750262
 H        -0.434320         5.320753         1.045578
 H         1.997464         2.404497         1.292388
 H         1.157252         3.638945         2.438163
 H        -0.641619         2.369831         2.606615
