19
Iteration:  4369charge 0 multiplicity 1
 O         0.129899         0.057125         0.287827
 C        -0.688551         1.097683         0.601065
 C        -2.187948         0.985719         0.367524
 C        -1.540619         2.047037        -0.303746
 C        -1.226677         3.240141         0.703637
 C        -0.334538         4.246189         0.004303
 O         0.816471         4.373898         0.933949
 C         1.090538         3.006834         1.386759
 C        -0.276074         2.265582         1.519625
 H         0.576746        -0.208612         1.102556
 H        -2.451739         0.194219        -0.262288
 H        -2.897913         1.262730         1.038432
 H        -1.730686         2.261126        -1.343753
 H        -1.951592         3.695072         1.290447
 H        -0.074256         3.926762        -1.015846
 H        -0.826605         5.209773         0.137676
 H         1.771474         2.511885         0.670345
 H         1.554764         3.250893         2.365034
 H        -0.542441         2.110281         2.626646
