19
Iteration:  3393charge 0 multiplicity 1
 O         0.263519         0.162974         0.227674
 C        -0.595706         1.168971         0.559210
 C        -2.094381         0.945257         0.550660
 C        -1.555151         2.034833        -0.255950
 C        -1.325507         3.281561         0.673306
 C        -0.307672         4.382723         0.230476
 O         0.968703         3.899932         0.416783
 C         0.808074         3.094098         1.607399
 C        -0.416698         2.347319         1.596507
 H         0.887436         0.303052        -0.438274
 H        -2.266580        -0.054057         0.128729
 H        -2.646571         1.191445         1.483677
 H        -1.876014         2.198847        -1.293374
 H        -2.282106         3.671118         1.128140
 H        -0.533861         4.703508        -0.852674
 H        -0.402020         5.289195         0.749881
 H         1.843979         2.465577         1.688583
 H         0.856875         3.756815         2.451586
 H        -0.839886         2.175622         2.594940
