19
Iteration:  3591
 O         0.202294         0.158474         0.417368
 C        -0.757619         1.120784         0.691021
 C        -2.212545         0.891690         0.420546
 C        -1.633115         2.066356        -0.219032
 C        -1.277559         3.268925         0.648528
 C        -0.291765         4.243096         0.007196
 O         0.805256         4.294597         0.923992
 C         1.093839         2.945407         1.174428
 C        -0.268275         2.304241         1.505222
 H         1.005592         0.512583         0.744344
 H        -2.349071         0.065995        -0.267025
 H        -2.969807         0.967901         1.241993
 H        -1.400200         2.208834        -1.276764
 H        -2.102912         3.884296         1.181988
 H         0.029807         3.945120        -1.006318
 H        -0.548465         5.239686        -0.026788
 H         1.542270         2.430279         0.197476
 H         1.887867         2.896901         1.963669
 H        -0.455811         2.292688         2.569265
