19
Iteration:  2789charge 0 multiplicity 1
 O         0.364578         0.381978         0.332560
 C        -0.711935         1.244360         0.657104
 C        -2.162723         0.904313         0.572305
 C        -1.547336         2.057941        -0.272038
 C        -1.315864         3.240433         0.747264
 C        -0.460867         4.359305         0.191632
 O         0.946303         3.912200         0.364757
 C         1.032476         2.909942         1.412493
 C        -0.380326         2.347634         1.666628
 H        -0.129968        -0.271943        -0.227645
 H        -2.475995         0.091365        -0.077718
 H        -2.962989         1.085334         1.341548
 H        -1.544006         2.090969        -1.369717
 H        -2.273625         3.618794         1.218788
 H        -0.520395         4.644442        -0.940090
 H        -0.520306         5.325275         0.662527
 H         1.806317         2.243301         1.011841
 H         1.300119         3.475640         2.279607
 H        -0.477053         2.000882         2.738799
