19
Iteration:  1159
 O         0.365342         0.337910         0.285936
 C        -0.635328         1.214299         0.637984
 C        -2.204230         0.958255         0.563972
 C        -1.556014         2.075616        -0.244622
 C        -1.331449         3.247874         0.737430
 C        -0.385386         4.407760         0.366581
 O         0.877611         3.812553         0.244729
 C         0.982961         2.996369         1.357927
 C        -0.368285         2.322734         1.604624
 H         0.200660        -0.540511         0.772320
 H        -2.418915         0.106163        -0.119102
 H        -2.857508         1.263802         1.420390
 H        -1.577810         2.140847        -1.301894
 H        -2.255916         3.643715         1.350787
 H        -0.588623         4.867704        -0.616994
 H        -0.439050         5.080220         1.295404
 H         1.793202         2.286107         1.047278
 H         1.437028         3.557630         2.209287
 H        -0.594766         2.285210         2.647749
