19
Iteration:   148
 O         0.457099         0.360196         0.210754
 C        -0.660794         1.169594         0.610836
 C        -2.165528         1.013877         0.594396
 C        -1.463214         2.180060        -0.166761
 C        -1.342366         3.306608         0.874895
 C        -0.449839         4.356829         0.229309
 O         0.853182         3.717829         0.200282
 C         0.906385         3.003611         1.367259
 C        -0.368660         2.299584         1.702590
 H         0.388058        -0.453644         0.912937
 H        -2.624541         0.314967        -0.159091
 H        -2.664540         1.029337         1.609614
 H        -1.832141         2.231730        -1.188697
 H        -2.278922         3.536798         1.305578
 H        -0.705304         4.550639        -0.927123
 H        -0.468035         5.341250         0.752365
 H         1.682364         2.180881         1.118986
 H         1.291771         3.766041         2.112687
 H        -0.607600         2.064650         2.819203
