19
Iteration:  1787
 O         0.257183         0.296493         0.163447
 C        -0.626670         1.206032         0.706591
 C        -2.193426         0.949121         0.606793
 C        -1.463451         2.101152        -0.299614
 C        -1.323793         3.233135         0.689203
 C        -0.455124         4.461879         0.317517
 O         0.902188         3.822260         0.285022
 C         1.039189         2.964432         1.457653
 C        -0.368198         2.403610         1.681373
 H         0.259402        -0.670361         0.655740
 H        -2.432746         0.006130         0.112428
 H        -2.844102         1.453743         1.210831
 H        -1.311506         1.805784        -1.318937
 H        -2.249631         3.589572         1.212216
 H        -0.642623         4.799158        -0.701852
 H        -0.554948         5.327862         0.968654
 H         1.769415         2.064144         1.111583
 H         1.352322         3.549895         2.334060
 H        -0.586725         2.118958         2.809186
