19
Iteration:   374
 O         0.261008         0.285225         0.309671
 C        -0.672925         1.252880         0.686398
 C        -2.113668         0.954297         0.454659
 C        -1.454410         2.114986        -0.206027
 C        -1.377138         3.241014         0.916464
 C        -0.443325         4.351159         0.337119
 O         0.826935         3.845566         0.184446
 C         1.077256         2.984564         1.311297
 C        -0.323689         2.363908         1.601231
 H         0.135726        -0.533536         0.940555
 H        -2.096715         0.090429        -0.218397
 H        -3.065144         0.970789         1.059123
 H        -1.408648         2.296450        -1.239203
 H        -2.321518         3.706990         1.433788
 H        -0.713724         4.885568        -0.562762
 H        -0.405102         5.185669         1.118824
 H         1.874567         2.233731         0.931294
 H         1.426320         3.559227         2.205608
 H        -0.528990         2.132359         2.696109
