19
Iteration:  1580charge 0 multiplicity 1
 O         0.295613         0.397090         0.116720
 C        -0.649448         1.259894         0.627366
 C        -2.092143         0.888750         0.670022
 C        -1.644979         2.050947        -0.215504
 C        -1.324052         3.266242         0.672553
 C        -0.313109         4.380508         0.220502
 O         0.927271         3.790440         0.343844
 C         0.951767         3.015455         1.518541
 C        -0.384582         2.339091         1.626569
 H        -0.026372        -0.542157         0.414343
 H        -2.402641         0.052895         0.073891
 H        -2.663519         0.908927         1.625242
 H        -1.685055         1.859555        -1.319064
 H        -2.098974         3.882452         1.243682
 H        -0.416854         4.829008        -0.753404
 H        -0.380303         5.207411         0.937219
 H         1.760225         2.220629         1.492408
 H         1.105885         3.750153         2.273458
 H        -0.666281         2.196039         2.684438
