19
Iteration:   223charge 0 multiplicity 1
 O         0.324685         0.408158        -0.026567
 C        -0.628543         1.190149         0.684290
 C        -2.140371         0.963186         0.747006
 C        -1.508890         2.134106        -0.136738
 C        -1.337640         3.250026         0.760204
 C        -0.420931         4.313547         0.105595
 O         0.937801         3.739770         0.330491
 C         0.938603         3.047707         1.528983
 C        -0.384582         2.341690         1.679980
 H         0.385985        -0.442254         0.384523
 H        -2.538738         0.191200         0.061572
 H        -2.729034         1.161376         1.729869
 H        -1.815484         2.105361        -1.149595
 H        -2.259684         3.657224         1.095328
 H        -0.684956         4.277440        -1.025862
 H        -0.501292         5.260104         0.570410
 H         1.852977         2.340186         1.460872
 H         1.016971         3.775127         2.288604
 H        -0.521745         2.196783         2.772578
