19
Iteration:   382
 O         0.283850         0.277533         0.274131
 C        -0.612554         1.244083         0.646598
 C        -2.127191         0.969843         0.514655
 C        -1.437432         2.143143        -0.178026
 C        -1.375552         3.280070         0.806663
 C        -0.473340         4.373102         0.318205
 O         0.791164         3.792828         0.247896
 C         1.074168         2.983544         1.319874
 C        -0.331111         2.359587         1.636612
 H         0.034280        -0.583433         0.853786
 H        -2.320945         0.240010        -0.219268
 H        -2.875747         1.099791         1.295175
 H        -1.260925         2.304586        -1.235835
 H        -2.307088         3.519715         1.381239
 H        -0.663648         4.790423        -0.640678
 H        -0.594593         5.111366         1.094441
 H         1.712570         2.205002         0.923931
 H         1.528295         3.502312         2.104299
 H        -0.446758         2.217983         2.800468
