19
Iteration:  2522
 O         0.231138         0.266274         0.185918
 C        -0.661301         1.204401         0.703931
 C        -2.089865         0.928221         0.654860
 C        -1.391022         2.071301        -0.231817
 C        -1.322162         3.255209         0.730495
 C        -0.431606         4.389307         0.255668
 O         0.863611         3.730307         0.287811
 C         0.963634         3.029212         1.450297
 C        -0.402728         2.418157         1.647407
 H         0.830015         0.855208        -0.444991
 H        -2.364686         0.186439        -0.064997
 H        -2.694466         1.299793         1.463140
 H        -1.573082         2.183646        -1.283400
 H        -2.250480         3.502309         1.003649
 H        -0.636632         4.647843        -0.747697
 H        -0.458533         5.271848         0.967682
 H         1.914775         2.362990         1.509539
 H         1.136249         3.685774         2.301763
 H        -0.790900         2.268964         2.676667
