19
Iteration:  2956
 O         0.394338         0.305000         0.198542
 C        -0.645124         1.237306         0.616860
 C        -2.111829         0.889634         0.560759
 C        -1.505980         2.066668        -0.234224
 C        -1.411901         3.326566         0.667779
 C        -0.380447         4.377916         0.252910
 O         0.949448         3.842486         0.388269
 C         0.996699         2.970158         1.469638
 C        -0.506724         2.365263         1.692553
 H         0.139918        -0.552300         0.388894
 H        -2.635939         0.131088        -0.037349
 H        -2.734617         1.184488         1.487275
 H        -1.557759         2.200453        -1.284994
 H        -2.410183         3.821924         0.989934
 H        -0.532629         4.711311        -0.862262
 H        -0.475381         5.341925         0.833190
 H         1.662581         2.135745         1.096220
 H         1.322806         3.479530         2.448886
 H        -0.875819         2.157615         2.725891
