19
Iteration:  4116
 O         0.188839         0.115372         0.149408
 C        -0.707039         1.092728         0.592123
 C        -2.158042         0.951361         0.634856
 C        -1.528871         1.962852        -0.387433
 C        -1.252480         3.277598         0.567061
 C        -0.229252         4.280007         0.018132
 O         0.861600         4.340647         0.968067
 C         1.011957         3.038245         1.443254
 C        -0.372985         2.348002         1.540809
 H        -0.082922        -0.669549         0.646058
 H        -2.612252         0.063709         0.167506
 H        -2.626331         1.214776         1.546889
 H        -1.634281         1.855890        -1.481982
 H        -2.206309         3.625621         1.106495
 H         0.136253         3.674865        -0.751963
 H        -0.630781         5.271519        -0.214423
 H         1.665837         2.645527         0.701157
 H         1.510582         3.029740         2.460973
 H        -0.875989         2.371117         2.539399
