19
Iteration:  4629
 O         0.217419         0.125541         0.311875
 C        -0.694572         1.125855         0.633925
 C        -2.238914         0.914082         0.519883
 C        -1.527495         2.000499        -0.344719
 C        -1.215047         3.246637         0.616075
 C        -0.304095         4.342242         0.081894
 O         0.840867         4.356354         0.954134
 C         1.095164         2.957109         1.266393
 C        -0.366794         2.374513         1.471343
 H         0.261147        -0.507348         1.132828
 H        -2.377088        -0.075637        -0.056792
 H        -2.851927         0.940710         1.454617
 H        -1.831748         1.919544        -1.423822
 H        -2.187570         3.555979         1.166752
 H        -0.119260         3.913018        -0.928722
 H        -0.874475         5.279810         0.151024
 H         1.551675         2.431922         0.295906
 H         1.745930         2.701015         2.042994
 H        -0.618179         2.392587         2.481912
