19
Iteration:  4030charge 0 multiplicity 1
 O         0.227727         0.275792         0.314881
 C        -0.732686         1.186921         0.744348
 C        -2.164582         0.900364         0.422919
 C        -1.475832         2.088788        -0.206649
 C        -1.263662         3.228935         0.648881
 C        -0.279257         4.208126        -0.028990
 O         0.796851         4.281317         0.904972
 C         1.038630         2.875478         1.283393
 C        -0.375814         2.297590         1.563986
 H        -0.113397        -0.573812         0.358833
 H        -2.258393         0.126354        -0.398622
 H        -3.109289         0.925131         1.059169
 H        -1.310554         2.246285        -1.267464
 H        -2.085049         3.930198         1.037929
 H         0.202418         4.018424        -1.081560
 H        -0.755765         5.178116        -0.045280
 H         1.567805         2.484472         0.346924
 H         1.714854         2.804736         2.240189
 H        -0.601813         2.299958         2.617500
