19
Iteration:  1642
 O         0.286242         0.203617         0.149418
 C        -0.655775         1.219502         0.525469
 C        -2.141551         1.054431         0.614279
 C        -1.605347         2.133935        -0.237071
 C        -1.339863         3.298603         0.812303
 C        -0.455627         4.248216         0.142907
 O         0.935719         3.906419         0.415067
 C         1.050927         3.017553         1.554913
 C        -0.329121         2.315652         1.554279
 H         0.548519        -0.075441         1.069966
 H        -2.431727         0.269160         0.004494
 H        -2.545422         1.139746         1.557575
 H        -1.940172         2.289517        -1.300425
 H        -2.178471         3.523318         1.375770
 H        -0.489184         4.246048        -0.931733
 H        -0.677941         5.327460         0.482350
 H         1.827950         2.293479         1.448638
 H         1.231266         3.520547         2.519795
 H        -0.567999         2.024407         2.619023
