19
Iteration:  3292charge 0 multiplicity 1
 O         0.380470         0.373862         0.398274
 C        -0.734533         1.207694         0.592881
 C        -2.155338         0.843532         0.497521
 C        -1.542956         2.008216        -0.299681
 C        -1.370028         3.316208         0.695841
 C        -0.336028         4.369659         0.342231
 O         0.988486         3.856116         0.331954
 C         0.950405         2.970735         1.485462
 C        -0.476221         2.343238         1.536296
 H         0.559726         0.302529        -0.614239
 H        -2.404532        -0.040562        -0.113711
 H        -2.655060         1.147435         1.417416
 H        -1.744655         2.023566        -1.381576
 H        -2.350853         3.868683         1.021628
 H        -0.488521         4.975453        -0.595815
 H        -0.458210         4.993902         1.269878
 H         1.987106         2.331911         1.622354
 H         0.944020         3.672681         2.360447
 H        -0.701218         2.102911         2.616710
