19
Iteration:  4613
 O         0.200943         0.119491         0.321469
 C        -0.707876         1.152876         0.657411
 C        -2.138069         0.909425         0.433926
 C        -1.544043         2.099353        -0.230637
 C        -1.290716         3.231617         0.647643
 C        -0.295220         4.274389         0.013689
 O         0.797125         4.320008         0.927813
 C         0.993234         2.926599         1.178141
 C        -0.315764         2.289133         1.594598
 H         0.679715        -0.165531         1.170527
 H        -2.352622         0.108363        -0.223897
 H        -2.961551         1.142701         1.144956
 H        -1.382814         2.262011        -1.265649
 H        -2.050747         3.783692         1.102471
 H         0.123747         4.094850        -0.979845
 H        -0.684917         5.289192        -0.061167
 H         1.419257         2.415667         0.383653
 H         1.867685         2.980801         1.940210
 H        -0.446934         2.236866         2.775427
