19
Iteration:  4267
 O         0.246419         0.089243         0.491373
 C        -0.696071         1.122347         0.575576
 C        -2.113712         0.965315         0.328409
 C        -1.556799         2.190423        -0.320733
 C        -1.315963         3.213009         0.735066
 C        -0.323434         4.241705         0.058144
 O         0.829781         4.349015         0.869639
 C         1.085511         2.928344         1.320403
 C        -0.321815         2.298275         1.511349
 H        -0.221273        -0.669122         0.081065
 H        -2.487322         0.088671        -0.234661
 H        -2.817105         1.181020         1.151492
 H        -1.967226         2.372470        -1.326580
 H        -2.060496         3.652321         1.369735
 H        -0.171937         3.950570        -0.960994
 H        -0.723276         5.315072        -0.163583
 H         1.719691         2.359855         0.611497
 H         1.698093         2.982499         2.160528
 H        -0.667871         2.029011         2.556085
