19
Iteration:  3773
 O         0.152435         0.034008         0.217255
 C        -0.698118         1.163259         0.599719
 C        -2.127828         0.918187         0.548319
 C        -1.624197         2.058076        -0.251641
 C        -1.268956         3.246592         0.587524
 C        -0.273404         4.247843         0.027225
 O         0.903244         4.301994         0.892998
 C         1.046424         2.966204         1.444078
 C        -0.398571         2.392375         1.510082
 H         1.080919         0.359842         0.266162
 H        -2.499604         0.188727        -0.127407
 H        -2.761862         1.104854         1.370383
 H        -1.557602         2.038632        -1.327942
 H        -2.163078         3.622747         1.133765
 H         0.001187         3.983714        -1.004003
 H        -0.662365         5.330203         0.048022
 H         1.636932         2.379632         0.786608
 H         1.445581         3.194843         2.422786
 H        -0.673258         2.287690         2.593060
