19
Iteration:  3630
 O         0.189033        -0.017845         0.320121
 C        -0.645365         1.104263         0.616783
 C        -2.177687         0.974650         0.609898
 C        -1.584501         2.008007        -0.274509
 C        -1.296157         3.271657         0.517566
 C        -0.293480         4.382631         0.041622
 O         0.867548         4.310230         0.908111
 C         1.045091         2.987970         1.325098
 C        -0.388048         2.330691         1.500397
 H         0.909305         0.339062        -0.233730
 H        -2.693635         0.088062         0.259452
 H        -2.542343         1.271177         1.572770
 H        -1.488590         1.714222        -1.315116
 H        -2.172564         3.705667         0.944601
 H         0.076884         4.258530        -1.019642
 H        -0.895627         5.373225         0.295127
 H         1.591014         2.511433         0.392733
 H         1.588433         2.974928         2.321913
 H        -0.594018         2.144596         2.601241
