19
Iteration:  1470
 O         0.286085         0.236961         0.332779
 C        -0.649575         1.254225         0.504262
 C        -2.159080         1.040334         0.590612
 C        -1.565949         2.116676        -0.285087
 C        -1.283304         3.150460         0.743417
 C        -0.417098         4.399786         0.347865
 O         0.908073         3.924000         0.273943
 C         1.012766         2.990430         1.386780
 C        -0.329112         2.256417         1.607789
 H         0.306987        -0.112428         1.169444
 H        -2.531912         0.150157         0.091783
 H        -2.716301         1.262079         1.485509
 H        -1.655461         2.256674        -1.367338
 H        -2.245713         3.633752         1.133465
 H        -0.816147         4.759769        -0.522254
 H        -0.629989         5.115980         1.160500
 H         1.761007         2.200637         1.083890
 H         1.414213         3.556583         2.240690
 H        -0.681462         1.874786         2.550636
