19
Iteration:  4824
 O         0.280747         0.173903         0.241329
 C        -0.619004         1.209769         0.593929
 C        -2.126662         0.937099         0.378451
 C        -1.555716         2.062049        -0.203778
 C        -1.331673         3.272818         0.777380
 C        -0.408571         4.244939         0.019857
 O         0.883995         4.114073         0.650591
 C         1.046374         3.033518         1.515621
 C        -0.354209         2.399605         1.577462
 H        -0.347036        -0.607447         0.537693
 H        -2.320803        -0.021652        -0.082754
 H        -2.644551         1.036367         1.390639
 H        -1.639262         2.324903        -1.253473
 H        -2.139990         3.686405         1.287456
 H        -0.391588         4.063293        -1.050674
 H        -0.781619         5.296628         0.043639
 H         1.694210         2.150006         1.208359
 H         1.329689         3.272235         2.579872
 H        -0.586074         2.059416         2.659221
