19
Iteration:  3956
 O         0.174994         0.021894         0.244506
 C        -0.686017         1.136803         0.642210
 C        -2.224382         1.025230         0.470151
 C        -1.434708         1.945400        -0.357989
 C        -1.292354         3.197621         0.565206
 C        -0.398196         4.378555         0.155324
 O         0.977378         4.300731         0.820559
 C         1.028068         3.014195         1.382902
 C        -0.362899         2.342137         1.573588
 H         0.401206        -0.372951         1.094475
 H        -2.558340         0.041227        -0.020850
 H        -2.975309         1.379201         1.316257
 H        -1.315822         2.051530        -1.430329
 H        -2.207333         3.587233         0.863800
 H        -0.204255         4.438229        -0.944227
 H        -0.946230         5.145011         0.706056
 H         1.665918         2.473997         0.657986
 H         1.389944         3.212176         2.394472
 H        -0.629879         2.182694         2.645216
