19
Iteration:   990
 O         0.296318         0.185867         0.226283
 C        -0.656053         1.149460         0.593319
 C        -2.112474         0.980213         0.480663
 C        -1.591090         2.169814        -0.156684
 C        -1.268101         3.270421         0.880086
 C        -0.489681         4.393773         0.199037
 O         0.923647         3.872357         0.228271
 C         1.014007         3.066356         1.468187
 C        -0.357716         2.299371         1.656303
 H         0.481787        -0.534341         1.000972
 H        -2.287613         0.135086        -0.193871
 H        -2.731973         0.932136         1.338360
 H        -1.799653         2.573585        -1.111864
 H        -2.154713         3.689751         1.394793
 H        -0.800675         4.664969        -0.840685
 H        -0.490120         5.378214         0.755728
 H         1.817809         2.390326         1.363683
 H         1.171350         3.609329         2.437973
 H        -0.579415         2.046920         2.612256
