19
Iteration:  1326charge 0 multiplicity 1
 O         0.341062         0.520384         0.139171
 C        -0.638304         1.272828         0.747720
 C        -2.122078         0.972122         0.525075
 C        -1.495372         2.113978        -0.152856
 C        -1.350807         3.288921         0.838884
 C        -0.466897         4.253817         0.201932
 O         0.910976         3.638660         0.138096
 C         0.976625         2.937928         1.507044
 C        -0.419047         2.394893         1.742021
 H         0.358298        -0.332002         0.436305
 H        -2.188249         0.155971        -0.121667
 H        -2.929167         1.126822         1.197459
 H        -1.192542         2.204623        -1.225416
 H        -2.343308         3.584141         1.287600
 H        -0.640069         4.586394        -0.766940
 H        -0.389909         5.190831         0.872948
 H         1.655373         2.055612         1.479416
 H         1.153148         3.670024         2.270990
 H        -0.713221         2.174285         2.698133
