19
Iteration:   510
 O         0.294024         0.470256         0.091523
 C        -0.709961         1.210631         0.676253
 C        -2.106007         0.832196         0.667360
 C        -1.667944         2.071151        -0.173810
 C        -1.403649         3.267161         0.708098
 C        -0.332023         4.304964         0.282649
 O         1.014075         3.755719         0.200182
 C         1.045688         3.051217         1.513752
 C        -0.416145         2.352629         1.643850
 H         0.556784        -0.230666         0.694863
 H        -2.298319        -0.017927         0.072730
 H        -2.671662         0.965149         1.610419
 H        -1.876422         2.185810        -1.214076
 H        -2.260518         3.827902         1.110847
 H        -0.506530         4.840041        -0.717801
 H        -0.429491         5.114903         1.032113
 H         1.880773         2.422109         1.495720
 H         1.234360         3.747524         2.320687
 H        -0.864777         2.221759         2.586456
