19
Iteration:  1786
 O         0.255364         0.297905         0.166051
 C        -0.637328         1.211840         0.706014
 C        -2.193528         0.943673         0.596347
 C        -1.467449         2.089508        -0.295641
 C        -1.322365         3.235858         0.693123
 C        -0.449847         4.470393         0.323762
 O         0.898908         3.817858         0.274631
 C         1.037642         2.963837         1.460365
 C        -0.360863         2.408061         1.692838
 H         0.227656        -0.641294         0.653799
 H        -2.420625        -0.003690         0.087334
 H        -2.850184         1.401991         1.206485
 H        -1.291362         1.814491        -1.347911
 H        -2.223872         3.582220         1.171167
 H        -0.607614         4.771571        -0.675677
 H        -0.574798         5.325033         0.967272
 H         1.780373         2.127168         1.099148
 H         1.407420         3.561061         2.349716
 H        -0.580221         2.108390         2.800143
