19
Iteration:  1505charge 0 multiplicity 1
 O         0.330598         0.335028         0.194635
 C        -0.675554         1.166294         0.784460
 C        -2.136901         0.886549         0.440835
 C        -1.521687         2.116108        -0.112472
 C        -1.297486         3.299769         0.761721
 C        -0.361808         4.424526         0.339800
 O         0.868680         3.792313         0.175260
 C         0.987890         2.977080         1.362007
 C        -0.471649         2.385306         1.736554
 H         0.079296        -0.478281         0.513101
 H        -2.079874         0.122997        -0.326062
 H        -3.019835         0.826184         1.232244
 H        -1.248773         2.154848        -1.189483
 H        -2.263522         3.774217         1.057743
 H        -0.636085         4.977924        -0.625665
 H        -0.219733         5.216456         1.123897
 H         1.584961         2.072196         1.025774
 H         1.526306         3.532173         2.201668
 H        -0.575892         2.469246         2.800138
