19
Iteration:  3405
 O         0.289979         0.168925         0.243840
 C        -0.630755         1.223790         0.605886
 C        -2.091844         0.920087         0.622171
 C        -1.563695         2.087422        -0.277345
 C        -1.336129         3.281847         0.598566
 C        -0.386848         4.373033         0.200018
 O         0.965414         3.939223         0.489607
 C         0.949397         2.991224         1.596796
 C        -0.469036         2.373704         1.550963
 H         0.844287         0.672276        -0.396066
 H        -2.376405         0.068119        -0.054588
 H        -2.653539         1.022600         1.573714
 H        -1.719026         2.007842        -1.384496
 H        -2.238664         3.733429         0.982415
 H        -0.347323         4.468211        -0.937425
 H        -0.673689         5.258439         0.691811
 H         1.761022         2.176646         1.375827
 H         1.129709         3.468549         2.592235
 H        -0.854003         2.150426         2.554441
