19
Iteration:  2615charge 0 multiplicity 1
 O         0.257209         0.314893         0.193359
 C        -0.583818         1.252309         0.626676
 C        -2.178346         0.957415         0.635338
 C        -1.503426         2.105649        -0.187292
 C        -1.288698         3.175423         0.813171
 C        -0.437576         4.363754         0.158555
 O         0.897641         3.741588         0.238411
 C         0.947610         3.086760         1.550254
 C        -0.386416         2.299877         1.651109
 H         1.039665         0.523733        -0.244732
 H        -2.332647         0.014096         0.063529
 H        -2.984826         1.355830         1.276806
 H        -1.373524         2.178435        -1.246751
 H        -2.123897         3.620148         1.270098
 H        -0.625939         4.532411        -0.964342
 H        -0.486253         5.311512         0.723393
 H         1.850814         2.478981         1.638340
 H         1.062157         3.801660         2.393300
 H        -0.727858         2.148086         2.697227
