19
Iteration:  2483charge 0 multiplicity 1
 O         0.252849         0.235659         0.343207
 C        -0.657445         1.169141         0.585872
 C        -2.081550         0.877894         0.481040
 C        -1.670117         2.228682        -0.147778
 C        -1.315266         3.240960         0.823717
 C        -0.406488         4.311158         0.242218
 O         0.951197         3.776590         0.237440
 C         1.055517         3.130367         1.486788
 C        -0.405048         2.337715         1.562779
 H         1.080413         0.682845         0.116017
 H        -2.316527         0.114495        -0.261598
 H        -2.944446         0.718065         1.158903
 H        -2.005653         2.408275        -1.198740
 H        -2.181383         3.733861         1.583649
 H        -0.581014         4.548741        -0.861161
 H        -0.443488         5.248398         0.790446
 H         1.959611         2.528789         1.468439
 H         1.036158         3.868364         2.350883
 H        -0.494316         2.162990         2.637037
