19
Iteration:  1592charge 0 multiplicity 1
 O         0.236321         0.391594         0.061616
 C        -0.696301         1.201430         0.691448
 C        -2.117551         0.807270         0.647174
 C        -1.654481         2.015351        -0.177600
 C        -1.321215         3.264795         0.615503
 C        -0.370185         4.360941         0.220482
 O         1.032627         3.846470         0.321229
 C         1.057491         3.055971         1.597365
 C        -0.382849         2.432534         1.654523
 H         0.092990        -0.563139         0.364475
 H        -2.260201        -0.107930         0.020538
 H        -2.904748         1.149699         1.439527
 H        -1.892657         2.196889        -1.235034
 H        -2.365134         3.590833         0.988785
 H        -0.397547         4.805192        -0.809021
 H        -0.597561         5.102313         0.964418
 H         1.937868         2.357915         1.432224
 H         1.253275         3.517074         2.524946
 H        -0.731248         2.259795         2.679671
