19
Iteration:  3452
 O         0.259970         0.211954         0.350335
 C        -0.678487         1.127436         0.697408
 C        -2.148352         0.855633         0.412629
 C        -1.618088         2.125318        -0.202236
 C        -1.340851         3.290115         0.721756
 C        -0.377406         4.293397         0.014741
 O         0.969076         4.110908         0.624054
 C         0.991280         2.935542         1.409581
 C        -0.378395         2.319825         1.593502
 H         1.035425         0.883324         0.090896
 H        -2.441137         0.164363        -0.379698
 H        -2.976462         0.906264         1.216388
 H        -1.543140         2.329699        -1.275356
 H        -2.135042         3.702455         1.248395
 H        -0.402742         4.161003        -1.086102
 H        -0.657703         5.332079         0.367190
 H         1.766887         2.186660         0.907691
 H         1.582783         3.218086         2.406726
 H        -0.683433         2.354976         2.652321
