19
Iteration:  1143charge 0 multiplicity 1
 O         0.324856         0.384745         0.228806
 C        -0.661248         1.241304         0.688103
 C        -2.063068         1.032926         0.570428
 C        -1.477753         2.159316        -0.294297
 C        -1.318334         3.240674         0.762007
 C        -0.492339         4.368485         0.341298
 O         0.806063         3.723414         0.158850
 C         1.073597         2.897972         1.498742
 C        -0.369369         2.376812         1.657930
 H         0.186617        -0.603887         0.603985
 H        -2.466489         0.143398         0.145497
 H        -2.598010         1.319617         1.451169
 H        -1.583118         2.144666        -1.431130
 H        -2.270629         3.439392         1.084542
 H        -0.908448         4.824535        -0.603839
 H        -0.479806         5.189209         1.050244
 H         1.782527         2.118870         1.322210
 H         1.258143         3.625259         2.273832
 H        -0.698859         2.034286         2.691804
