19
Iteration:   231charge 0 multiplicity 1
 O         0.330624         0.342206        -0.016901
 C        -0.641486         1.261529         0.582834
 C        -2.109325         0.973018         0.737617
 C        -1.549277         2.108391        -0.139263
 C        -1.305512         3.300488         0.792895
 C        -0.391175         4.180232         0.141678
 O         0.896267         3.817675         0.293056
 C         0.932174         3.035704         1.545940
 C        -0.362206         2.353666         1.700416
 H         0.328720        -0.432803         0.611258
 H        -2.483857         0.021272         0.292624
 H        -2.703786         1.337803         1.578198
 H        -1.792849         2.277365        -1.216951
 H        -2.278077         3.752275         1.152083
 H        -0.610917         4.247671        -0.910601
 H        -0.589533         5.247333         0.556944
 H         1.841833         2.402680         1.553090
 H         1.124500         3.714219         2.446070
 H        -0.727924         2.091300         2.652187
