19
Iteration:  2901
 O         0.249326         0.136016         0.315446
 C        -0.657509         1.181020         0.656824
 C        -2.114988         0.911396         0.456235
 C        -1.622540         2.099987        -0.210913
 C        -1.311241         3.272773         0.752743
 C        -0.384458         4.383130         0.209810
 O         0.960516         3.935879         0.312523
 C         0.981684         3.039707         1.511274
 C        -0.373920         2.376350         1.628925
 H         0.931061         0.627716        -0.170414
 H        -2.240310         0.080079        -0.284274
 H        -2.867824         0.761836         1.289864
 H        -1.796535         2.335335        -1.252222
 H        -2.187534         3.682055         1.288389
 H        -0.595270         4.683932        -0.873961
 H        -0.421678         5.322091         0.813548
 H         1.723391         2.200966         1.347909
 H         1.172392         3.528474         2.534291
 H        -0.669682         2.221554         2.693960
