19
Iteration:  4015charge 0 multiplicity 1
 O         0.295038         0.240118         0.333574
 C        -0.767125         1.109711         0.653584
 C        -2.218067         0.863372         0.400251
 C        -1.557782         2.006366        -0.313060
 C        -1.277926         3.292830         0.648206
 C        -0.291437         4.325172         0.058013
 O         0.919842         4.261767         0.924727
 C         1.018057         2.902564         1.270063
 C        -0.381906         2.414921         1.586377
 H         0.065036        -0.703107         0.692218
 H        -2.413138         0.020391        -0.188315
 H        -2.855761         1.015455         1.200857
 H        -1.542825         1.972971        -1.412228
 H        -2.228948         3.554590         1.170571
 H        -0.143956         3.963223        -0.932635
 H        -0.589910         5.415611        -0.165395
 H         1.535684         2.305897         0.585099
 H         1.673668         2.924051         2.106605
 H        -0.612671         2.313355         2.683516
