19
Iteration:  1938
 O         0.341582         0.389677         0.270595
 C        -0.668993         1.176152         0.686834
 C        -2.122249         0.893100         0.436473
 C        -1.581600         2.197921        -0.126228
 C        -1.360310         3.323018         0.823860
 C        -0.386225         4.353998         0.196917
 O         0.936185         3.792881         0.202233
 C         0.966938         2.897130         1.422266
 C        -0.400789         2.350549         1.695029
 H         0.378071        -0.230364         1.028472
 H        -2.245980         0.062054        -0.248124
 H        -2.823735         0.778337         1.278535
 H        -1.657789         2.427703        -1.191074
 H        -2.217361         3.862339         1.212590
 H        -0.594073         4.624532        -0.837966
 H        -0.398013         5.275900         0.818048
 H         1.711378         2.188700         1.203818
 H         1.287772         3.426340         2.304874
 H        -0.633291         2.135762         2.728388
