19
Iteration:  4577
 O         0.195670         0.173056         0.316521
 C        -0.688092         1.134423         0.681851
 C        -2.164187         0.877685         0.479583
 C        -1.615329         2.079495        -0.295926
 C        -1.275862         3.188744         0.589709
 C        -0.296384         4.300226         0.082631
 O         0.900926         4.277356         0.849876
 C         1.030388         2.943499         1.272274
 C        -0.369871         2.308415         1.564314
 H         1.035623         0.320929         0.907635
 H        -2.417694         0.041347        -0.182528
 H        -2.913169         1.229577         1.155396
 H        -1.400043         2.160190        -1.399664
 H        -2.165230         3.623028         1.132625
 H        -0.151188         4.155842        -0.980426
 H        -0.919792         5.215114         0.322908
 H         1.481489         2.416807         0.457236
 H         1.593311         2.945337         2.250707
 H        -0.532611         2.473807         2.689177
