19
Iteration:  3928charge 0 multiplicity 1
 O         0.174639         0.061611         0.296010
 C        -0.737028         1.147353         0.676779
 C        -2.192727         0.899374         0.391170
 C        -1.413744         2.047134        -0.294800
 C        -1.241970         3.289146         0.701655
 C        -0.389447         4.370879         0.051478
 O         0.852788         4.260985         0.818267
 C         1.103006         2.970374         1.339928
 C        -0.356837         2.333070         1.587502
 H        -0.318708        -0.713574         0.742516
 H        -2.186059         0.080012        -0.282381
 H        -3.018485         1.030185         0.968807
 H        -1.179536         2.239265        -1.364205
 H        -2.212519         3.813321         1.168882
 H        -0.143501         4.278503        -1.021924
 H        -0.885630         5.323794         0.337648
 H         1.845575         2.419434         0.669646
 H         1.613178         3.190391         2.349976
 H        -0.600122         2.270269         2.666741
