19
Iteration:   339charge 0 multiplicity 1
 O         0.358970         0.188459         0.354676
 C        -0.702882         1.118002         0.672297
 C        -2.192711         0.906841         0.400217
 C        -1.502444         2.148875        -0.123649
 C        -1.338434         3.323707         0.869686
 C        -0.400908         4.457998         0.374214
 O         0.816292         3.877160         0.167545
 C         1.056694         3.013397         1.291806
 C        -0.340488         2.357781         1.555527
 H         0.345361        -0.418909         1.150585
 H        -2.270279         0.190976        -0.388277
 H        -3.035519         0.918703         1.087323
 H        -1.657319         2.221525        -1.206923
 H        -2.304797         3.749685         1.367473
 H        -0.691794         4.972336        -0.495043
 H        -0.180275         5.170071         1.202397
 H         1.918716         2.384510         1.062572
 H         1.297297         3.568969         2.214594
 H        -0.560871         2.044152         2.651509
