19
Iteration:  2959charge 0 multiplicity 1
 O         0.378804         0.290765         0.177866
 C        -0.635185         1.233243         0.622518
 C        -2.126232         0.882878         0.548647
 C        -1.512322         2.067925        -0.245440
 C        -1.445265         3.336015         0.678970
 C        -0.356297         4.386724         0.260151
 O         0.946805         3.840995         0.370949
 C         0.972200         2.975891         1.506410
 C        -0.491127         2.404379         1.687232
 H         0.180762        -0.617531         0.563357
 H        -2.573703         0.126559        -0.081447
 H        -2.574950         1.130462         1.523666
 H        -1.488973         2.121121        -1.364033
 H        -2.321904         3.793296         0.943559
 H        -0.599246         4.612661        -0.756194
 H        -0.463494         5.289971         0.895278
 H         1.762296         2.104773         1.128789
 H         1.354390         3.523473         2.411133
 H        -0.739022         2.138596         2.740853
