19
Iteration:  4044charge 0 multiplicity 1
 O         0.244947         0.209035         0.292334
 C        -0.716421         1.144105         0.664253
 C        -2.165656         0.930431         0.410940
 C        -1.550357         2.081701        -0.314070
 C        -1.240329         3.278321         0.665883
 C        -0.260193         4.172445        -0.003131
 O         0.779020         4.303374         0.931730
 C         1.048471         2.939206         1.321991
 C        -0.352234         2.394316         1.661504
 H        -0.223746        -0.682799         0.165279
 H        -2.332440        -0.027849        -0.162937
 H        -2.941367         1.166219         1.236180
 H        -1.460694         2.005446        -1.413414
 H        -2.081326         3.663888         1.171349
 H         0.033914         3.524367        -0.942235
 H        -0.600807         5.177269        -0.218743
 H         1.389509         2.202619         0.433838
 H         1.874438         3.049395         2.052512
 H        -0.593371         2.231927         2.723442
