19
Iteration:  4699charge 0 multiplicity 1
 O         0.196721         0.102910         0.374882
 C        -0.714000         1.140127         0.616923
 C        -2.241962         0.928368         0.497451
 C        -1.603874         2.031739        -0.296623
 C        -1.205486         3.289246         0.642117
 C        -0.291378         4.236952         0.009822
 O         0.752901         4.404586         0.938590
 C         1.103920         3.002249         1.280493
 C        -0.218618         2.285414         1.531718
 H         0.076217        -0.350802        -0.518210
 H        -2.159858        -0.027234         0.111745
 H        -2.895036         1.051898         1.328023
 H        -1.713352         1.993420        -1.359717
 H        -2.004013         3.652066         1.319215
 H         0.141580         3.610394        -0.812335
 H        -0.748443         5.220162        -0.131495
 H         1.642712         2.409367         0.444622
 H         1.830435         3.023001         2.234804
 H        -0.704419         2.121148         2.504499
