19
Iteration:   540
 O         0.396886         0.309737         0.189811
 C        -0.674731         1.180574         0.637783
 C        -2.116071         0.821585         0.530667
 C        -1.628700         2.148588        -0.133777
 C        -1.376724         3.422100         0.868902
 C        -0.376024         4.405008         0.272880
 O         0.915074         3.743738         0.172458
 C         1.011413         2.958664         1.445925
 C        -0.433194         2.374956         1.605772
 H         0.524156        -0.281861         0.907900
 H        -2.383410        -0.070783        -0.014264
 H        -2.672698         0.888147         1.519951
 H        -1.829932         2.404071        -1.178947
 H        -2.282150         3.926877         1.420096
 H        -0.545733         4.697305        -0.790559
 H        -0.332932         5.356428         0.808129
 H         1.834912         2.235060         1.262587
 H         1.251665         3.645150         2.278396
 H        -0.813436         2.374646         2.731016
