19
Iteration:  4283charge 0 multiplicity 1
 O         0.276154         0.146373         0.444644
 C        -0.682134         1.162589         0.605942
 C        -2.194779         0.958901         0.446328
 C        -1.630246         2.075196        -0.371877
 C        -1.211224         3.217634         0.611689
 C        -0.317103         4.286002         0.106383
 O         0.866629         4.295851         0.969373
 C         1.017147         2.948227         1.233120
 C        -0.357499         2.316343         1.520698
 H        -0.202001        -0.745926         0.171406
 H        -2.354490         0.137612        -0.225954
 H        -2.929303         0.980521         1.249775
 H        -1.497805         2.265395        -1.432292
 H        -2.162646         3.631523         1.027804
 H         0.062975         4.005835        -0.975942
 H        -0.750659         5.236715         0.153015
 H         1.423023         2.450702         0.314877
 H         1.716617         2.875463         2.186101
 H        -0.469875         2.296339         2.600905
