19
Iteration:  2154charge 0 multiplicity 1
 O         0.245242         0.373610         0.125820
 C        -0.706340         1.227216         0.738443
 C        -2.087549         0.838796         0.501207
 C        -1.504862         2.123534        -0.152565
 C        -1.300974         3.244964         0.780550
 C        -0.413764         4.368252         0.226969
 O         0.902627         3.734581         0.292744
 C         1.002313         3.067966         1.444749
 C        -0.371462         2.421128         1.720325
 H         0.220678        -0.601580         0.465701
 H        -2.167069         0.127202        -0.336141
 H        -2.946670         0.904758         1.183275
 H        -1.380050         2.103312        -1.292350
 H        -2.057467         3.832123         1.134075
 H        -0.691607         4.522881        -0.808455
 H        -0.483195         5.267498         0.853543
 H         1.688986         2.285195         1.412739
 H         1.345137         3.714183         2.267315
 H        -0.692603         2.384719         2.795362
