19
Iteration:  4839charge 0 multiplicity 1
 O         0.247406         0.227381         0.233752
 C        -0.673280         1.192767         0.600176
 C        -2.127362         0.864503         0.503344
 C        -1.549056         2.131162        -0.297548
 C        -1.289807         3.202812         0.710679
 C        -0.376441         4.262551         0.113555
 O         0.949134         4.171129         0.585308
 C         0.963346         3.010478         1.491809
 C        -0.391097         2.299850         1.643130
 H         0.196064        -0.572774         0.758085
 H        -2.265168         0.076197        -0.245497
 H        -2.983350         1.062502         1.286352
 H        -1.490647         2.158091        -1.383482
 H        -2.192544         3.683654         1.217159
 H        -0.301051         4.088258        -0.948176
 H        -0.738571         5.307710         0.366408
 H         1.843983         2.459009         1.133242
 H         1.428162         3.388560         2.349819
 H        -0.705726         2.186051         2.676832
