19
Iteration:  3433
 O         0.303357         0.314961         0.292348
 C        -0.708543         1.222501         0.705704
 C        -2.253813         0.858692         0.478520
 C        -1.598410         2.006655        -0.267544
 C        -1.299132         3.227269         0.660558
 C        -0.318042         4.312662         0.165536
 O         0.984237         4.084686         0.554746
 C         0.994926         2.906357         1.414608
 C        -0.458513         2.358463         1.593659
 H         1.045934         0.982584         0.033399
 H        -2.224426        -0.077573        -0.035264
 H        -2.836728         0.976961         1.381020
 H        -1.605167         1.974682        -1.339157
 H        -2.223649         3.783093         1.070177
 H        -0.255712         4.225562        -0.901726
 H        -0.710467         5.397405         0.431354
 H         1.730082         2.185893         1.141862
 H         1.485232         3.029845         2.490569
 H        -0.701919         2.193029         2.661571
