19
Iteration:  3018charge 0 multiplicity 1
 O         0.300693         0.160725         0.249511
 C        -0.610422         1.175967         0.662156
 C        -2.149118         0.994601         0.440702
 C        -1.518078         2.175875        -0.223386
 C        -1.304197         3.249836         0.787504
 C        -0.446827         4.348712         0.213039
 O         0.951151         3.807132         0.351230
 C         0.912688         3.051254         1.552131
 C        -0.410865         2.352230         1.606762
 H         1.124508         0.571676        -0.016241
 H        -2.461482         0.175851        -0.231209
 H        -2.974376         1.100919         1.156964
 H        -1.545364         2.411168        -1.268865
 H        -2.189565         3.633087         1.391642
 H        -0.736400         4.569987        -0.867554
 H        -0.512926         5.345150         0.686477
 H         1.911056         2.468699         1.489136
 H         1.027459         3.711736         2.444738
 H        -0.739133         2.104900         2.628917
