19
Iteration:   895charge 0 multiplicity 1
 O         0.298749         0.192620         0.354198
 C        -0.603572         1.222440         0.570992
 C        -2.106575         1.035230         0.512920
 C        -1.501747         2.225184        -0.204629
 C        -1.346988         3.235041         0.822036
 C        -0.494554         4.303473         0.283140
 O         0.849311         3.877330         0.302184
 C         1.036640         3.023545         1.346479
 C        -0.300470         2.332633         1.574636
 H        -0.188606        -0.619438         0.380130
 H        -2.337885         0.058744         0.009763
 H        -2.601072         1.101090         1.440376
 H        -1.666948         2.352168        -1.248372
 H        -2.240342         3.663442         1.331132
 H        -0.823727         4.533973        -0.760217
 H        -0.726454         5.178374         0.844168
 H         1.788686         2.274019         1.113968
 H         1.432936         3.479818         2.300899
 H        -0.582466         2.104041         2.707776
