19
Iteration:  2692
 O         0.383128         0.286347         0.264281
 C        -0.698980         1.207250         0.630200
 C        -2.227305         0.908539         0.568051
 C        -1.579890         2.136411        -0.199934
 C        -1.291902         3.258841         0.787575
 C        -0.473851         4.311919         0.162657
 O         0.909942         3.838530         0.308596
 C         1.010158         2.972522         1.436773
 C        -0.352780         2.387604         1.646656
 H         1.304903         0.727198         0.538408
 H        -2.613644         0.197736        -0.176492
 H        -2.896163         0.977758         1.500444
 H        -1.730555         2.103490        -1.258643
 H        -2.083520         3.700916         1.269026
 H        -0.649164         4.527568        -0.961570
 H        -0.482794         5.317892         0.674053
 H         1.792796         2.023284         1.260711
 H         1.216404         3.591340         2.348930
 H        -0.563469         2.404363         2.744006
