19
Iteration:  4686charge 0 multiplicity 1
 O         0.210436         0.027950         0.345016
 C        -0.675649         1.119262         0.586292
 C        -2.182960         0.953425         0.584726
 C        -1.539205         2.017997        -0.288632
 C        -1.312647         3.206076         0.620243
 C        -0.273165         4.279977         0.030154
 O         0.813010         4.393182         0.967979
 C         1.067229         3.027438         1.288654
 C        -0.329437         2.304221         1.485094
 H        -0.136321        -0.420837        -0.414746
 H        -2.652688         0.142834         0.078729
 H        -2.698796         1.252670         1.530946
 H        -1.584182         2.058443        -1.358451
 H        -2.230038         3.781588         1.016918
 H         0.068388         4.075942        -1.031541
 H        -0.681227         5.306656        -0.191583
 H         1.765014         2.639611         0.416245
 H         1.677331         3.067606         2.250337
 H        -0.346492         2.237711         2.538376
