19
Iteration:  4035
 O         0.233599         0.266003         0.303426
 C        -0.744135         1.168160         0.737551
 C        -2.149893         0.910605         0.428089
 C        -1.496490         2.075454        -0.236307
 C        -1.251447         3.273373         0.647702
 C        -0.232337         4.172388         0.007263
 O         0.756588         4.280710         0.890751
 C         1.041662         2.872883         1.310856
 C        -0.356796         2.336434         1.591387
 H        -0.228026        -0.652844         0.296266
 H        -2.236140         0.158898        -0.330497
 H        -3.046392         1.004153         1.031466
 H        -1.297703         2.299904        -1.291856
 H        -2.044392         3.828686         1.058418
 H         0.066863         4.016434        -1.029404
 H        -0.856978         5.098479        -0.235479
 H         1.576947         2.556526         0.390974
 H         1.800708         2.857643         2.026345
 H        -0.698034         2.161801         2.659999
