19
Iteration:    53charge 0 multiplicity 1
 O         0.288387         0.236703         0.298758
 C        -0.713707         1.219893         0.640072
 C        -2.173245         0.974641         0.651561
 C        -1.556525         2.101150        -0.282707
 C        -1.334214         3.215056         0.678134
 C        -0.535616         4.332007         0.277523
 O         0.926248         4.047395         0.347605
 C         1.133739         2.931168         1.328269
 C        -0.272148         2.331650         1.576687
 H         0.196343        -0.420164         0.911859
 H        -2.420393         0.027811         0.153870
 H        -2.783953         1.162861         1.530667
 H        -1.475141         2.057875        -1.359538
 H        -2.301744         3.473556         1.301321
 H        -0.796109         4.785659        -0.615112
 H        -0.781338         5.235482         0.919457
 H         1.875980         2.264620         0.942406
 H         1.573262         3.201243         2.320329
 H        -0.487435         2.178973         2.602813
