19
Iteration:  1382
 O         0.369279         0.298344         0.245721
 C        -0.660678         1.185423         0.586872
 C        -2.137524         0.975397         0.606827
 C        -1.621777         2.136241        -0.221700
 C        -1.321098         3.290282         0.771933
 C        -0.387302         4.341917         0.251157
 O         0.904322         3.851106         0.312805
 C         0.976792         2.979376         1.393335
 C        -0.374435         2.315058         1.592807
 H         0.357118        -0.556824         0.747904
 H        -2.541192         0.057770         0.170928
 H        -2.569146         1.212568         1.524949
 H        -1.944094         2.335420        -1.224618
 H        -2.273451         3.725907         1.145454
 H        -0.435339         4.601074        -0.730738
 H        -0.466334         5.318259         0.870190
 H         1.886339         2.351417         1.379221
 H         1.147726         3.614039         2.321374
 H        -0.612691         2.037968         2.566747
