19
Iteration:  3378charge 0 multiplicity 1
 O         0.249721         0.103039         0.229729
 C        -0.651096         1.231971         0.564782
 C        -2.090059         0.878843         0.536387
 C        -1.548067         2.124589        -0.290665
 C        -1.322603         3.225248         0.716499
 C        -0.377948         4.401781         0.227120
 O         0.993865         3.783583         0.345154
 C         0.919625         3.258523         1.697653
 C        -0.400216         2.314138         1.591972
 H         0.804017         0.627498        -0.383421
 H        -2.562674         0.155535        -0.104781
 H        -2.790572         0.989939         1.378841
 H        -1.506966         2.145558        -1.369372
 H        -2.258576         3.696536         1.259456
 H        -0.445871         4.717801        -0.774648
 H        -0.577165         5.220418         1.003831
 H         1.811645         2.724963         1.871022
 H         0.558359         4.097919         2.273489
 H        -0.670064         1.974352         2.612400
