19
Iteration:  2129
 O         0.392057         0.295751         0.170714
 C        -0.628283         1.254223         0.614580
 C        -2.162763         0.986638         0.558839
 C        -1.533175         2.132624        -0.229786
 C        -1.411012         3.261326         0.838648
 C        -0.371757         4.389876         0.282726
 O         0.879414         3.731473         0.195452
 C         0.947390         2.996009         1.477076
 C        -0.410314         2.327899         1.657257
 H         0.582959        -0.359321         0.962443
 H        -2.467089         0.127916         0.034032
 H        -2.719339         1.366485         1.390806
 H        -1.375321         2.131105        -1.296213
 H        -2.237213         3.822965         1.281382
 H        -0.667816         4.597649        -0.744809
 H        -0.341149         5.274354         0.908404
 H         1.913255         2.330242         1.649621
 H         1.031246         3.758997         2.260007
 H        -0.613750         2.099018         2.780132
