19
Iteration:  3669
 O         0.134540         0.049522         0.319436
 C        -0.684027         1.164329         0.566452
 C        -2.176094         0.962779         0.567073
 C        -1.609379         1.969139        -0.330540
 C        -1.281688         3.186151         0.615536
 C        -0.311947         4.267642         0.030698
 O         0.846256         4.375642         0.888244
 C         1.124040         3.051046         1.381236
 C        -0.265780         2.311446         1.545436
 H        -0.073244        -0.367900        -0.601169
 H        -2.476985         0.005293         0.050892
 H        -2.746858         1.309737         1.493572
 H        -1.359132         2.069033        -1.394716
 H        -2.182729         3.786855         1.035339
 H        -0.041479         4.085861        -1.010978
 H        -0.662614         5.216062         0.154558
 H         1.904643         2.501561         1.014849
 H         1.499210         3.324078         2.346015
 H        -0.490878         2.098327         2.592076
