19
Iteration:  3903charge 0 multiplicity 1
 O         0.266213         0.170068         0.433415
 C        -0.719105         1.143703         0.595329
 C        -2.121514         0.949159         0.438996
 C        -1.537087         2.085107        -0.380017
 C        -1.279172         3.246712         0.694284
 C        -0.313047         4.301399         0.109381
 O         0.873230         4.281952         0.885918
 C         1.053589         2.903213         1.278166
 C        -0.419958         2.303431         1.536371
 H        -0.200381        -0.635538         0.368162
 H        -2.349571         0.151831        -0.320039
 H        -2.902921         1.194659         1.236843
 H        -1.732533         2.300746        -1.440890
 H        -2.245900         3.598935         1.220823
 H         0.001055         3.914090        -0.925177
 H        -0.769592         5.360913        -0.003424
 H         1.513236         2.374145         0.419937
 H         1.880503         2.839927         1.973331
 H        -0.776241         2.262300         2.610451
