19
Iteration:  1939
 O         0.342650         0.393092         0.268253
 C        -0.669073         1.173315         0.683043
 C        -2.126777         0.900856         0.437887
 C        -1.576038         2.197282        -0.133406
 C        -1.357501         3.312651         0.830602
 C        -0.393825         4.358745         0.195163
 O         0.935584         3.792068         0.197781
 C         0.964176         2.901319         1.430877
 C        -0.397168         2.350633         1.693642
 H         0.371573        -0.253246         1.055892
 H        -2.244692         0.074481        -0.218978
 H        -2.834888         0.774967         1.276116
 H        -1.633299         2.412076        -1.204079
 H        -2.211794         3.884272         1.208310
 H        -0.607726         4.599679        -0.854761
 H        -0.406250         5.293475         0.825344
 H         1.743777         2.144121         1.174241
 H         1.306590         3.389431         2.338032
 H        -0.648229         2.155807         2.773653
