19
Iteration:  2365charge 0 multiplicity 1
 O         0.354030         0.274897         0.320688
 C        -0.688432         1.217681         0.616969
 C        -2.116040         0.979660         0.502791
 C        -1.594649         2.142295        -0.203114
 C        -1.338260         3.278943         0.823410
 C        -0.451423         4.345349         0.207981
 O         0.912802         3.833897         0.316704
 C         1.016911         2.955317         1.467122
 C        -0.332977         2.372589         1.579200
 H         0.258484        -0.264739        -0.405259
 H        -2.448641         0.160189        -0.108127
 H        -2.668233         1.033268         1.550625
 H        -1.573641         2.272012        -1.293035
 H        -2.127423         3.600487         1.395394
 H        -0.748865         4.302107        -0.883544
 H        -0.589066         5.345809         0.628526
 H         1.881459         2.264123         1.496293
 H         1.094977         3.673996         2.336013
 H        -0.674704         2.143744         2.646190
