19
Iteration:  4518
 O         0.188978         0.096656         0.294403
 C        -0.679090         1.165451         0.586662
 C        -2.205761         0.972973         0.507147
 C        -1.492607         2.009276        -0.300989
 C        -1.243112         3.173867         0.610588
 C        -0.355859         4.347609         0.021782
 O         0.848563         4.271877         0.814592
 C         1.043030         2.970119         1.460498
 C        -0.311863         2.340741         1.626982
 H         0.356254        -0.059846        -0.590481
 H        -2.428867        -0.030527         0.118890
 H        -2.890960         1.237210         1.408718
 H        -1.636015         2.185019        -1.341991
 H        -2.300422         3.352331         1.049227
 H        -0.061909         4.209850        -1.082883
 H        -0.742695         5.381567         0.137752
 H         1.892480         2.504335         0.935466
 H         1.468430         3.073192         2.406065
 H        -0.705864         2.270347         2.576256
