19
Iteration:  1561
 O         0.457113         0.340360         0.198722
 C        -0.649425         1.189358         0.562124
 C        -2.097344         0.962010         0.612656
 C        -1.572040         2.195042        -0.183361
 C        -1.372335         3.328893         0.831253
 C        -0.409543         4.357349         0.248066
 O         0.947494         3.717680         0.223652
 C         0.948408         2.986636         1.527017
 C        -0.473817         2.306576         1.568767
 H         0.154482        -0.552437         0.475507
 H        -2.663624         0.098683         0.116847
 H        -2.775117         1.229660         1.587678
 H        -1.938090         2.505780        -1.150803
 H        -2.321340         3.706138         1.289868
 H        -0.589943         4.599461        -0.900766
 H        -0.298140         5.328003         0.738727
 H         1.713292         2.192519         1.539715
 H         1.012816         3.696466         2.400367
 H        -0.632444         2.126845         2.627510
