19
Iteration:  4475
 O         0.267140         0.199099         0.331805
 C        -0.697468         1.184542         0.564928
 C        -2.172200         0.788389         0.502679
 C        -1.653353         2.070704        -0.253024
 C        -1.275821         3.257521         0.620751
 C        -0.224268         4.167797        -0.068777
 O         0.838055         4.309889         0.972551
 C         1.021703         2.968802         1.381818
 C        -0.330463         2.361909         1.600732
 H         0.107488        -0.047367        -0.546465
 H        -2.594520         0.100039        -0.244837
 H        -2.956204         1.195777         1.309239
 H        -1.708299         2.310910        -1.292610
 H        -2.046482         3.989062         1.125252
 H         0.088818         3.881690        -1.020191
 H        -0.691858         5.164452        -0.291305
 H         1.511334         2.300167         0.653916
 H         1.727084         2.940445         2.148129
 H        -0.528774         2.208097         2.623891
