19
Iteration:  1554charge 0 multiplicity 1
 O         0.477656         0.352215         0.231920
 C        -0.612272         1.196425         0.584324
 C        -2.152111         0.983778         0.547519
 C        -1.615678         2.247808        -0.193826
 C        -1.372538         3.271183         0.828050
 C        -0.424543         4.345850         0.191445
 O         0.902017         3.708198         0.219487
 C         0.966126         2.948791         1.522962
 C        -0.391688         2.299432         1.655524
 H         0.109091        -0.594975         0.570260
 H        -2.663750         0.319705        -0.165794
 H        -2.640936         1.178990         1.429268
 H        -2.031276         2.470492        -1.172161
 H        -2.126691         3.800986         1.368210
 H        -0.689874         4.664433        -0.819671
 H        -0.394755         5.296836         0.831632
 H         1.707203         2.175058         1.602042
 H         1.173075         3.859716         2.239767
 H        -0.663117         2.110639         2.743957
