19
Iteration:   113charge 0 multiplicity 1
 O         0.176735         0.248402         0.216942
 C        -0.689890         1.241219         0.724624
 C        -2.138918         0.833270         0.499157
 C        -1.492475         2.034719        -0.207884
 C        -1.322974         3.203117         0.765436
 C        -0.413143         4.439767         0.352294
 O         0.877197         3.864220         0.223902
 C         1.054351         3.182255         1.349355
 C        -0.272535         2.409147         1.683605
 H        -0.051145        -0.704602         0.628390
 H        -2.100572        -0.167806        -0.077677
 H        -2.935034         0.808943         1.310916
 H        -1.503935         1.890974        -1.337051
 H        -2.177902         3.442504         1.318691
 H        -0.684028         4.912982        -0.711971
 H        -0.384261         5.209788         1.141599
 H         1.809810         2.302957         1.138632
 H         1.507506         3.755906         2.201453
 H        -0.428877         2.402986         2.817703
