19
Iteration:  2660charge 0 multiplicity 1
 O         0.336650         0.256810         0.306888
 C        -0.655663         1.301802         0.613781
 C        -2.112019         0.783599         0.582855
 C        -1.691641         2.104173        -0.240635
 C        -1.337104         3.308074         0.721979
 C        -0.384893         4.369862         0.244009
 O         0.936131         3.792296         0.266185
 C         0.958209         2.995134         1.463494
 C        -0.389768         2.433811         1.669541
 H         0.715532         0.625221        -0.461002
 H        -2.206468        -0.099849        -0.065446
 H        -2.732453         0.895001         1.551222
 H        -1.725061         2.108656        -1.313917
 H        -2.150865         3.788235         1.256591
 H        -0.503202         4.734615        -0.822862
 H        -0.286212         5.234075         0.957631
 H         1.759037         2.259294         1.490847
 H         1.366619         3.583599         2.325868
 H        -0.639974         2.294521         2.742248
