19
Iteration:  3756charge 0 multiplicity 1
 O         0.221901         0.204974         0.170713
 C        -0.706045         1.106667         0.637643
 C        -2.209595         0.899898         0.628629
 C        -1.537306         2.005263        -0.272694
 C        -1.237221         3.310858         0.552370
 C        -0.218718         4.363980        -0.031466
 O         0.843622         4.224864         0.914735
 C         0.961922         2.881073         1.397828
 C        -0.403753         2.324188         1.573819
 H         1.105512         0.334787         0.677941
 H        -2.479996        -0.070371         0.122131
 H        -2.840134         1.079533         1.561577
 H        -1.856302         1.975894        -1.343765
 H        -2.029554         3.946658         0.972252
 H         0.111670         4.178341        -1.100611
 H        -0.529415         5.361819        -0.050941
 H         1.526052         2.259063         0.598697
 H         1.623096         2.929455         2.323553
 H        -0.868073         2.205087         2.546213
