19
Iteration:  3518charge 0 multiplicity 1
 O         0.163059        -0.030371         0.274782
 C        -0.751242         1.079655         0.658759
 C        -2.170601         0.926964         0.665398
 C        -1.530813         1.953570        -0.295758
 C        -1.284250         3.176483         0.468497
 C        -0.343453         4.420373         0.157497
 O         0.966855         4.337737         0.746897
 C         1.037923         3.096713         1.441998
 C        -0.349762         2.328413         1.471698
 H         0.887148         0.375821        -0.279444
 H        -2.714592         0.145758         0.133499
 H        -2.839106         1.417816         1.453717
 H        -1.397184         1.790244        -1.331722
 H        -2.098814         3.596003         0.961544
 H        -0.022295         4.584876        -0.910272
 H        -0.877848         5.286843         0.658874
 H         1.618991         2.492195         0.702407
 H         1.438645         3.237565         2.450319
 H        -0.759877         2.141826         2.503715
