19
Iteration:  4809
 O         0.291913         0.170787         0.260711
 C        -0.656283         1.179412         0.588492
 C        -2.100541         0.892640         0.554709
 C        -1.576495         2.162657        -0.271404
 C        -1.335577         3.276228         0.702312
 C        -0.395054         4.268541         0.034230
 O         0.907617         4.168000         0.660318
 C         1.034518         2.975813         1.530234
 C        -0.342211         2.297932         1.598407
 H        -0.071722        -0.712278         0.102686
 H        -2.424921         0.238927        -0.279872
 H        -2.925003         0.928758         1.172176
 H        -1.807779         2.223092        -1.369636
 H        -2.290648         3.685660         1.199202
 H        -0.264683         3.931191        -1.079895
 H        -0.655738         5.311370         0.047883
 H         1.842632         2.404403         0.988585
 H         1.236224         3.517749         2.553901
 H        -0.753288         2.194643         2.592724
