19
Iteration:  3326
 O         0.357705         0.330162         0.342218
 C        -0.650268         1.212851         0.658983
 C        -2.079601         0.893746         0.433211
 C        -1.510700         2.150079        -0.216090
 C        -1.382080         3.325447         0.732295
 C        -0.403305         4.345126         0.194387
 O         0.879020         3.790206         0.392235
 C         0.969163         2.879653         1.485909
 C        -0.473802         2.373541         1.623589
 H         1.097949         0.952322        -0.092919
 H        -2.301182         0.080310        -0.255884
 H        -2.805451         0.889975         1.279228
 H        -1.792289         2.130486        -1.268084
 H        -2.320194         3.908308         1.028900
 H        -0.442262         4.656769        -0.926948
 H        -0.631103         5.275326         0.723382
 H         1.790491         2.017818         1.192291
 H         1.272915         3.417887         2.409702
 H        -0.680154         2.345403         2.710773
