19
Iteration:  3031
 O         0.261307         0.217979         0.321729
 C        -0.653211         1.227560         0.584449
 C        -2.048962         0.915804         0.452495
 C        -1.526366         2.146673        -0.260460
 C        -1.342643         3.316661         0.739587
 C        -0.361976         4.385688         0.221258
 O         0.875848         3.855337         0.369060
 C         0.964863         2.968146         1.531639
 C        -0.420426         2.304032         1.696915
 H         0.731298         0.500249        -0.516691
 H        -2.250049         0.118112        -0.271526
 H        -2.577439         1.089560         1.408764
 H        -1.716204         2.199030        -1.309038
 H        -2.392888         3.787745         1.073351
 H        -0.454675         4.445877        -0.933616
 H        -0.508976         5.331529         0.792158
 H         1.723043         2.253567         1.410808
 H         1.209089         3.569014         2.450483
 H        -0.684499         2.124399         2.750139
