19
Iteration:   179
 O         0.319367         0.504507         0.194409
 C        -0.675025         1.253383         0.640234
 C        -2.041301         0.842432         0.599635
 C        -1.720132         2.098306        -0.139109
 C        -1.435724         3.297323         0.772113
 C        -0.367911         4.308667         0.261739
 O         0.996000         3.691879         0.181650
 C         1.011689         2.992710         1.438303
 C        -0.385302         2.416317         1.653869
 H         0.510383        -0.077332         0.857252
 H        -2.184827         0.075017        -0.240497
 H        -2.646589         0.641039         1.556186
 H        -2.040689         2.156737        -1.202338
 H        -2.281831         3.678375         1.290181
 H        -0.444174         4.745365        -0.817806
 H        -0.349720         5.016833         1.044669
 H         1.759860         2.100773         1.314654
 H         1.313819         3.656011         2.238342
 H        -0.705436         2.133192         2.701067
