19
Iteration:  3084charge 0 multiplicity 1
 O         0.445902         0.387705         0.330142
 C        -0.728673         1.176565         0.550918
 C        -2.248346         0.915510         0.566417
 C        -1.501252         2.031051        -0.242531
 C        -1.323883         3.291452         0.673626
 C        -0.386702         4.436939         0.285218
 O         0.963525         3.840626         0.334267
 C         0.952938         2.936923         1.527086
 C        -0.460632         2.305219         1.591562
 H         0.407727        -0.091885        -0.545281
 H        -2.601047         0.156383        -0.127135
 H        -2.907135         1.374033         1.332926
 H        -1.424898         2.235449        -1.271679
 H        -2.261875         3.650164         1.041577
 H        -0.544370         4.821796        -0.803652
 H        -0.494194         5.248008         1.047072
 H         1.904239         2.209293         1.546248
 H         0.951957         3.421211         2.568693
 H        -0.605467         1.970541         2.646695
