19
Iteration:  2575
 O         0.273310         0.211729         0.314373
 C        -0.673722         1.226397         0.611646
 C        -2.066849         0.825613         0.510947
 C        -1.758173         2.074934        -0.111208
 C        -1.287670         3.334896         0.798619
 C        -0.332800         4.405418         0.149144
 O         0.996203         3.874921         0.274324
 C         0.942843         3.009633         1.497525
 C        -0.406776         2.371868         1.561606
 H         1.098170         0.799668         0.003260
 H        -2.096525        -0.014044        -0.207283
 H        -2.695465         0.706951         1.450803
 H        -1.985836         2.232807        -1.149985
 H        -2.157425         3.790601         1.506835
 H        -0.597196         4.657156        -0.852316
 H        -0.409072         5.295219         0.806008
 H         1.710018         2.281540         1.361809
 H         1.181844         3.623651         2.413543
 H        -0.753992         2.022220         2.518336
