19
Iteration:  4301charge 0 multiplicity 1
 O         0.246355         0.222041         0.362487
 C        -0.737609         1.107282         0.665933
 C        -2.214450         0.825932         0.523095
 C        -1.422968         1.987314        -0.335732
 C        -1.327712         3.330528         0.540739
 C        -0.240039         4.442063         0.061665
 O         0.819078         4.292138         1.035024
 C         1.079887         2.841938         1.196233
 C        -0.386375         2.321696         1.481400
 H        -0.107244        -0.747932         0.315290
 H        -2.572921        -0.037120        -0.022230
 H        -2.845425         1.315833         1.229887
 H        -1.746594         1.764433        -1.355699
 H        -2.132293         3.753088         1.083819
 H         0.251497         4.216365        -0.842750
 H        -0.754662         5.450130         0.246201
 H         1.510233         2.425235         0.267556
 H         1.661624         2.715647         2.054825
 H        -0.708804         2.424942         2.580623
