19
Iteration:  2420charge 0 multiplicity 1
 O         0.267373         0.271062         0.196550
 C        -0.708309         1.218923         0.704889
 C        -2.168347         0.862451         0.637409
 C        -1.526782         1.986850        -0.232862
 C        -1.351527         3.273099         0.678746
 C        -0.341433         4.429717         0.277963
 O         0.948340         3.829474         0.293763
 C         0.988405         3.071026         1.466970
 C        -0.367751         2.355944         1.663763
 H         0.740410         0.441236        -0.628218
 H        -2.301567        -0.112456         0.111911
 H        -3.050747         1.283990         1.314049
 H        -1.585634         2.130501        -1.343391
 H        -2.207297         3.591054         1.128537
 H        -0.502061         4.951338        -0.725563
 H        -0.485031         5.279775         1.000518
 H         1.681041         2.200509         1.349362
 H         1.173458         3.806692         2.287333
 H        -0.593868         2.207453         2.789950
