19
Iteration:  1032charge 0 multiplicity 1
 O         0.267911         0.301073         0.020623
 C        -0.691199         1.180630         0.674302
 C        -2.127580         0.875220         0.711623
 C        -1.603202         2.077209        -0.203993
 C        -1.312302         3.250293         0.666688
 C        -0.393403         4.369620         0.225899
 O         1.004725         3.880181         0.348270
 C         1.006798         3.085541         1.521708
 C        -0.403467         2.347534         1.628595
 H         0.384220        -0.485014         0.568414
 H        -2.497838        -0.126141         0.421166
 H        -2.702205         1.200216         1.603373
 H        -1.700776         2.013251        -1.249807
 H        -2.178448         3.656620         1.093568
 H        -0.539894         4.783214        -0.761555
 H        -0.588760         5.193758         0.907745
 H         1.882499         2.367276         1.331124
 H         1.241721         3.828554         2.281100
 H        -0.756125         2.209628         2.683733
