19
Iteration:  4744
 O         0.363376         0.236400         0.318244
 C        -0.695949         1.168750         0.581719
 C        -2.171347         0.848711         0.678130
 C        -1.583768         2.027892        -0.283851
 C        -1.283454         3.252656         0.649307
 C        -0.303519         4.323666        -0.024196
 O         0.886758         4.246869         0.849074
 C         0.947870         2.849508         1.370585
 C        -0.426128         2.371312         1.530428
 H         0.068256        -0.070175        -0.635002
 H        -2.485669         0.081808        -0.019697
 H        -2.863087         1.305738         1.268666
 H        -1.743113         2.197505        -1.367089
 H        -2.118954         3.730468         1.134414
 H         0.076730         3.884932        -0.982081
 H        -0.599028         5.347564         0.014486
 H         1.489235         2.263608         0.508406
 H         1.717050         2.883128         2.274248
 H        -0.735916         2.316593         2.620573
