19
Iteration:  4580charge 0 multiplicity 1
 O         0.201455         0.175132         0.316319
 C        -0.689571         1.147726         0.685411
 C        -2.173671         0.892099         0.445882
 C        -1.585909         2.080935        -0.280160
 C        -1.303276         3.156471         0.616882
 C        -0.308433         4.296931         0.070425
 O         0.900688         4.289459         0.860925
 C         1.026248         2.931688         1.240267
 C        -0.378660         2.324053         1.565012
 H         0.927753         0.307038         0.882940
 H        -2.409177         0.057223        -0.125560
 H        -2.908904         1.177701         1.221573
 H        -1.344164         2.217863        -1.310366
 H        -2.112271         3.612922         1.102615
 H        -0.073864         4.044070        -0.953559
 H        -0.884526         5.185623         0.273739
 H         1.542433         2.304554         0.525663
 H         1.659342         2.948040         2.222648
 H        -0.469587         2.532663         2.707226
