19
Iteration:  4001
 O         0.323844         0.156697         0.335668
 C        -0.682745         1.163642         0.602616
 C        -2.220284         0.864841         0.507478
 C        -1.582626         2.019910        -0.351489
 C        -1.340081         3.269124         0.582417
 C        -0.270282         4.360206         0.153733
 O         0.928499         4.295691         0.844533
 C         1.062825         2.900820         1.353070
 C        -0.469270         2.340538         1.487345
 H         0.230911        -0.485854         1.038314
 H        -2.520135        -0.050005        -0.066064
 H        -2.988413         1.199474         1.279427
 H        -1.619890         2.102475        -1.455321
 H        -2.117460         3.829391         0.958055
 H         0.056241         4.214624        -0.861206
 H        -0.663636         5.362562         0.465440
 H         1.365821         2.251524         0.466046
 H         1.678244         2.773242         2.230434
 H        -0.816057         2.321318         2.546734
