19
Iteration:  4610
 O         0.198568         0.124606         0.321093
 C        -0.690165         1.156261         0.661228
 C        -2.139791         0.890799         0.442810
 C        -1.528159         2.107288        -0.231597
 C        -1.299305         3.266959         0.648750
 C        -0.292023         4.278183         0.021045
 O         0.787236         4.300607         0.916365
 C         0.997181         2.942983         1.192318
 C        -0.320558         2.260156         1.601840
 H         0.713401        -0.108380         1.151348
 H        -2.403288         0.135609        -0.238893
 H        -3.026171         1.199813         0.980581
 H        -1.371541         2.222790        -1.321482
 H        -2.098624         3.839489         1.187170
 H         0.085136         3.916204        -0.990114
 H        -0.739826         5.328538        -0.050946
 H         1.435684         2.361566         0.350026
 H         1.912603         2.950691         1.884122
 H        -0.407324         2.299832         2.726594
