19
Iteration:  3564
 O         0.195228         0.066803         0.451151
 C        -0.697115         1.142010         0.630115
 C        -2.146089         0.965921         0.435601
 C        -1.570647         2.064646        -0.272685
 C        -1.316036         3.240790         0.688013
 C        -0.340794         4.244559         0.050264
 O         0.886590         4.342917         0.841024
 C         1.045231         2.942127         1.198935
 C        -0.350722         2.286392         1.558196
 H         0.960924         0.431741         0.072898
 H        -2.486016         0.082746        -0.115940
 H        -2.644116         1.109226         1.367436
 H        -1.582928         2.281054        -1.341122
 H        -2.155596         3.788552         0.991010
 H        -0.125550         3.966585        -0.991876
 H        -0.691525         5.360635         0.154888
 H         1.499506         2.350059         0.390757
 H         1.555737         2.964367         2.191370
 H        -0.522908         2.249976         2.661848
