19
Iteration:  1687
 O         0.271428         0.345843         0.179556
 C        -0.674911         1.130238         0.736179
 C        -2.217252         0.807911         0.580983
 C        -1.501113         2.066593        -0.173962
 C        -1.305461         3.297387         0.668893
 C        -0.358256         4.464632         0.333069
 O         0.924432         3.828141         0.300028
 C         1.025781         3.020531         1.415465
 C        -0.394648         2.394980         1.590331
 H         0.064564        -0.628331         0.273410
 H        -2.574914         0.202274        -0.191284
 H        -2.883894         0.945608         1.320790
 H        -1.353577         2.042060        -1.311704
 H        -2.181186         3.708054         1.085581
 H        -0.558598         4.861313        -0.610934
 H        -0.282942         5.293742         1.103783
 H         1.787400         2.255792         1.404213
 H         1.260583         3.631346         2.249210
 H        -0.688038         2.489886         2.678932
