19
Iteration:  4240charge 0 multiplicity 1
 O         0.228123         0.094665         0.385727
 C        -0.725052         1.154978         0.609289
 C        -2.154139         0.883889         0.399288
 C        -1.537938         2.102445        -0.298100
 C        -1.257436         3.242450         0.637098
 C        -0.336584         4.309405         0.073551
 O         0.887264         4.303472         0.823485
 C         1.039950         2.968189         1.376312
 C        -0.310043         2.319339         1.561754
 H        -0.309497        -0.612884        -0.094060
 H        -2.461117         0.029137        -0.222648
 H        -2.952554         1.121694         1.230542
 H        -1.702886         2.130466        -1.372002
 H        -2.036256         3.818501         1.257646
 H        -0.203256         4.188435        -1.029325
 H        -0.768328         5.256958         0.240759
 H         1.782351         2.366726         0.831053
 H         1.410451         3.199327         2.453723
 H        -0.615405         2.147321         2.559386
