19
Iteration:  4161
 O         0.209134         0.235762         0.273934
 C        -0.761175         1.147355         0.614551
 C        -2.229624         0.848164         0.413298
 C        -1.595887         2.064122        -0.263295
 C        -1.321931         3.185402         0.719496
 C        -0.205419         4.224461        -0.016398
 O         0.846124         4.319888         0.931744
 C         1.108680         2.957275         1.343242
 C        -0.367439         2.353800         1.531040
 H         0.640213        -0.183299         1.008524
 H        -2.346775        -0.052564        -0.213191
 H        -2.856280         1.198233         1.235717
 H        -1.556732         2.261158        -1.354824
 H        -2.158158         3.868713         1.132217
 H         0.261719         3.655276        -0.839353
 H        -0.531919         5.215803        -0.323591
 H         1.678039         2.358404         0.572902
 H         1.742505         2.987310         2.327334
 H        -0.683705         2.220993         2.571098
