19
Iteration:  2613
 O         0.243240         0.307791         0.195469
 C        -0.583002         1.251496         0.627583
 C        -2.174086         0.962647         0.621062
 C        -1.504522         2.096252        -0.180477
 C        -1.294373         3.187996         0.824230
 C        -0.443779         4.348366         0.151937
 O         0.892781         3.744493         0.245256
 C         0.955374         3.095732         1.556656
 C        -0.381067         2.310817         1.638171
 H         1.136155         0.604557        -0.208754
 H        -2.326655         0.037908         0.056998
 H        -2.930836         1.310506         1.286691
 H        -1.434580         2.181507        -1.287408
 H        -2.112483         3.596648         1.234270
 H        -0.627017         4.527475        -0.955072
 H        -0.463059         5.311938         0.714200
 H         1.913208         2.408988         1.651810
 H         1.117326         3.780055         2.387072
 H        -0.737649         2.127507         2.687963
