19
Iteration:  2675charge 0 multiplicity 1
 O         0.281213         0.361035         0.327286
 C        -0.683100         1.185318         0.662362
 C        -2.043883         0.896425         0.568082
 C        -1.633820         2.085629        -0.177248
 C        -1.391758         3.302201         0.784620
 C        -0.348114         4.364825         0.188266
 O         0.971909         3.831858         0.278657
 C         0.987750         2.956770         1.415011
 C        -0.435270         2.315723         1.593300
 H         1.164979         0.792789        -0.011067
 H        -2.221986        -0.046550         0.043231
 H        -2.707018         0.981508         1.418011
 H        -1.761454         2.232280        -1.276060
 H        -2.411571         3.804301         1.229170
 H        -0.604794         4.566012        -0.808410
 H        -0.591565         5.279207         0.738823
 H         1.733012         2.274826         1.114813
 H         1.177931         3.531809         2.327334
 H        -0.639339         1.983664         2.609407
