19
Iteration:  3759charge 0 multiplicity 1
 O         0.210685         0.179634         0.173475
 C        -0.683578         1.112001         0.633010
 C        -2.203464         0.908953         0.610357
 C        -1.549842         2.010298        -0.269356
 C        -1.230414         3.310534         0.570979
 C        -0.222912         4.369973        -0.045399
 O         0.842086         4.212677         0.906372
 C         0.978734         2.917346         1.412717
 C        -0.408210         2.310236         1.568982
 H         1.095676         0.326041         0.627563
 H        -2.457936        -0.029094         0.056497
 H        -2.854338         1.084824         1.579825
 H        -1.850626         1.850576        -1.307077
 H        -2.102200         3.986148         1.037890
 H         0.114321         4.168375        -1.028651
 H        -0.620665         5.402406        -0.057247
 H         1.567386         2.340600         0.706057
 H         1.638088         2.786579         2.271559
 H        -0.934159         2.314528         2.567197
