19
Iteration:  3973
 O         0.183457         0.110225         0.307918
 C        -0.672448         1.130895         0.606799
 C        -2.175161         0.967303         0.577455
 C        -1.444175         1.999309        -0.428345
 C        -1.227557         3.243098         0.510363
 C        -0.387136         4.470588         0.196130
 O         0.818052         4.219108         0.814626
 C         1.062568         2.893168         1.434891
 C        -0.361326         2.322814         1.434941
 H         0.554871        -0.293713         1.158637
 H        -2.613605         0.133969         0.114845
 H        -2.717471         1.385313         1.383866
 H        -1.637064         1.919929        -1.507694
 H        -2.194201         3.603123         1.096379
 H        -0.108009         4.470819        -0.905389
 H        -0.760489         5.478900         0.510438
 H         1.691611         2.223567         0.790411
 H         1.571532         2.914952         2.453471
 H        -0.741748         2.347135         2.457082
