19
Iteration:  4000
 O         0.320597         0.156678         0.334331
 C        -0.677227         1.163840         0.594850
 C        -2.214730         0.872778         0.514029
 C        -1.581212         2.025921        -0.345607
 C        -1.337107         3.262882         0.574215
 C        -0.278077         4.362991         0.150947
 O         0.932731         4.296074         0.849860
 C         1.057563         2.906241         1.348668
 C        -0.474623         2.332899         1.484203
 H         0.233254        -0.495181         1.097688
 H        -2.504430        -0.067642        -0.070289
 H        -3.000183         1.215693         1.304230
 H        -1.627722         2.084543        -1.443836
 H        -2.126958         3.827571         0.941507
 H         0.043900         4.254810        -0.900130
 H        -0.646165         5.323143         0.505967
 H         1.385671         2.196103         0.465838
 H         1.671204         2.763431         2.269639
 H        -0.803400         2.309567         2.533122
