19
Iteration:  4917
 O         0.377559         0.214308         0.319559
 C        -0.601489         1.227498         0.604825
 C        -2.123594         0.897789         0.365621
 C        -1.517034         2.130470        -0.305362
 C        -1.299098         3.240652         0.807230
 C        -0.397043         4.402695         0.253188
 O         0.885320         3.797480         0.313539
 C         0.941899         3.102498         1.549268
 C        -0.458946         2.351716         1.690324
 H         0.123008        -0.614409         0.701712
 H        -2.402900         0.039647        -0.344541
 H        -2.937985         1.140569         1.096259
 H        -1.639111         2.273840        -1.420315
 H        -2.297706         3.756336         1.024623
 H        -0.665556         4.926612        -0.688682
 H        -0.411831         5.333519         0.989089
 H         1.879194         2.526176         1.375054
 H         1.094122         3.787439         2.376207
 H        -0.864779         2.168424         2.670558
