19
Iteration:  2123charge 0 multiplicity 1
 O         0.406574         0.299485         0.204808
 C        -0.619015         1.212831         0.581188
 C        -2.155180         0.982753         0.588703
 C        -1.567532         2.189816        -0.235882
 C        -1.363332         3.233179         0.823815
 C        -0.397906         4.351167         0.318754
 O         0.922531         3.716836         0.239711
 C         0.901759         3.036534         1.406461
 C        -0.401984         2.334398         1.634466
 H         0.548339        -0.202671         0.978513
 H        -2.563031         0.083595         0.053550
 H        -2.803427         1.391712         1.418217
 H        -1.441104         2.158640        -1.355298
 H        -2.215310         3.833111         1.207317
 H        -0.773222         4.639524        -0.684391
 H        -0.209667         5.272558         0.957210
 H         1.667431         2.390384         1.534401
 H         1.040410         3.788078         2.240998
 H        -0.662991         2.061891         2.606707
