19
Iteration:  1492
 O         0.359574         0.288579         0.230293
 C        -0.704257         1.155492         0.743396
 C        -2.150535         0.957840         0.540810
 C        -1.450031         2.117042        -0.227452
 C        -1.371321         3.330112         0.764283
 C        -0.401348         4.449954         0.368374
 O         0.848748         3.789593         0.256442
 C         1.010097         2.918970         1.333068
 C        -0.383655         2.414355         1.597244
 H         0.512856        -0.646608         0.712642
 H        -2.444321         0.127460        -0.073888
 H        -2.964885         1.159767         1.257990
 H        -1.433567         2.159014        -1.341017
 H        -2.318126         3.705261         1.309114
 H        -0.595829         4.848297        -0.584027
 H        -0.498445         5.215259         1.161561
 H         1.778705         2.153962         1.046951
 H         1.354892         3.494036         2.179896
 H        -0.699504         2.181787         2.591445
