19
Iteration:  2418charge 0 multiplicity 1
 O         0.273743         0.265009         0.203534
 C        -0.710924         1.216996         0.708698
 C        -2.170318         0.860892         0.633035
 C        -1.523386         1.986889        -0.235245
 C        -1.364834         3.259597         0.690698
 C        -0.329600         4.426298         0.283547
 O         0.953744         3.825204         0.296607
 C         0.982658         3.084080         1.467972
 C        -0.349503         2.364271         1.637539
 H         0.615861         0.435900        -0.623625
 H        -2.306445        -0.061342         0.127081
 H        -3.042472         1.258957         1.254809
 H        -1.638592         2.137612        -1.312782
 H        -2.241520         3.657673         1.214697
 H        -0.515583         4.935972        -0.729284
 H        -0.452512         5.277976         1.010124
 H         1.647533         2.307871         1.349619
 H         1.172401         3.827665         2.285960
 H        -0.674127         2.153577         2.678612
