19
Iteration:  3947
 O         0.118824         0.055843         0.259578
 C        -0.660349         1.107297         0.704187
 C        -2.231889         0.965085         0.388384
 C        -1.429361         1.980720        -0.351139
 C        -1.254398         3.162984         0.595433
 C        -0.385331         4.369346         0.187381
 O         0.958914         4.358088         0.760350
 C         0.998817         3.032506         1.406934
 C        -0.330762         2.332556         1.596830
 H         0.299156        -0.605874         0.942089
 H        -2.581231         0.113686        -0.256650
 H        -2.817091         1.230600         1.299553
 H        -1.421794         2.024836        -1.456384
 H        -2.190374         3.551932         1.040267
 H        -0.138564         4.421254        -0.911689
 H        -0.869146         5.432275         0.333139
 H         1.582465         2.331115         0.867779
 H         1.548329         2.927194         2.283305
 H        -0.527278         2.327849         2.706618
