19
Iteration:  2537charge 0 multiplicity 1
 O         0.331043         0.283193         0.214869
 C        -0.615938         1.205206         0.669786
 C        -2.163258         1.027658         0.604502
 C        -1.546823         2.043331        -0.227463
 C        -1.373743         3.220537         0.677711
 C        -0.401836         4.336550         0.269555
 O         0.930680         3.823305         0.253607
 C         0.948421         2.990682         1.518574
 C        -0.407445         2.383878         1.658550
 H         0.930106         0.713843        -0.410349
 H        -2.423401         0.031316         0.282976
 H        -2.759320         1.274390         1.478063
 H        -1.590823         1.856694        -1.337741
 H        -2.228121         3.753277         1.338019
 H        -0.605070         4.776257        -0.765057
 H        -0.509888         5.177889         0.969266
 H         1.630267         2.124315         1.231830
 H         1.303123         3.586353         2.388791
 H        -0.597115         2.273953         2.761147
