19
Iteration:   858charge 0 multiplicity 1
 O         0.213977         0.244248         0.115185
 C        -0.720597         1.105623         0.741442
 C        -2.201911         0.852776         0.597592
 C        -1.511007         2.033706        -0.130356
 C        -1.211113         3.263401         0.707171
 C        -0.376046         4.386657         0.268131
 O         0.924951         3.946504         0.277381
 C         0.965585         3.154232         1.463456
 C        -0.326440         2.364640         1.567760
 H         0.022598        -0.750395         0.366482
 H        -2.315017         0.030514        -0.066878
 H        -2.755864         0.839678         1.574086
 H        -1.482570         2.170520        -1.261737
 H        -2.162524         3.615550         1.269424
 H        -0.422314         4.923736        -0.704437
 H        -0.419021         5.178696         1.031855
 H         1.936726         2.608225         1.439230
 H         1.110600         3.818246         2.330843
 H        -0.547757         2.353872         2.638927
