19
Iteration:  1954
 O         0.374298         0.368967         0.251199
 C        -0.718194         1.277944         0.690660
 C        -2.199933         0.990082         0.501019
 C        -1.489744         2.099690        -0.259857
 C        -1.285640         3.269021         0.839395
 C        -0.460866         4.343293         0.229042
 O         0.873685         3.756545         0.263649
 C         1.043797         2.946303         1.445618
 C        -0.403472         2.370476         1.680458
 H         0.458255        -0.423860         0.688115
 H        -2.400857         0.168179        -0.216612
 H        -2.957373         1.313544         1.205283
 H        -1.294525         2.092278        -1.333627
 H        -2.225778         3.426909         1.438438
 H        -0.815548         4.443767        -0.832857
 H        -0.515818         5.387143         0.631491
 H         1.667324         1.983496         1.075730
 H         1.571612         3.550520         2.268816
 H        -0.674348         2.264356         2.810868
