19
Iteration:  1724
 O         0.356872         0.332955         0.362374
 C        -0.686888         1.240952         0.587151
 C        -2.061548         0.996840         0.474137
 C        -1.510397         2.184010        -0.230303
 C        -1.321914         3.312846         0.820055
 C        -0.453688         4.338452         0.324072
 O         0.832596         3.707156         0.239630
 C         1.014499         2.949177         1.392699
 C        -0.359405         2.335144         1.589717
 H        -0.065703        -0.541687         0.780103
 H        -2.454800         0.283273        -0.307208
 H        -2.784117         1.164441         1.371873
 H        -1.639423         2.569751        -1.195308
 H        -2.310425         3.556348         1.403279
 H        -0.586750         4.694299        -0.761837
 H        -0.568982         5.275832         0.989034
 H         1.845995         2.165900         1.125594
 H         1.297609         3.604966         2.331268
 H        -0.596835         2.066551         2.626911
