19
Iteration:  3198charge 0 multiplicity 1
 O         0.320079         0.275927         0.275853
 C        -0.627378         1.187465         0.586317
 C        -2.135811         0.897266         0.513386
 C        -1.536180         2.060398        -0.293027
 C        -1.351070         3.298431         0.588996
 C        -0.351791         4.469428         0.312431
 O         0.992762         3.945756         0.424245
 C         0.916315         2.913569         1.506640
 C        -0.500329         2.350132         1.575099
 H         0.527728        -0.218164         1.015778
 H        -2.309358         0.091234        -0.205650
 H        -2.717012         0.838869         1.447581
 H        -1.691412         1.873604        -1.357546
 H        -2.271375         3.794700         1.081458
 H        -0.575403         4.875501        -0.692329
 H        -0.500687         5.117645         1.178898
 H         1.635915         2.243348         1.236250
 H         1.272852         3.412521         2.490819
 H        -0.727584         2.081887         2.609513
