19
Iteration:   152charge 0 multiplicity 1
 O         0.492301         0.347252         0.213844
 C        -0.665821         1.190670         0.582285
 C        -2.168483         0.979095         0.626467
 C        -1.528902         2.181882        -0.201861
 C        -1.304002         3.339637         0.878110
 C        -0.450387         4.366990         0.211479
 O         0.832349         3.689611         0.222442
 C         0.919788         2.967978         1.357908
 C        -0.377688         2.336226         1.712752
 H         0.437650        -0.258795         0.869898
 H        -2.464908         0.248936        -0.049299
 H        -2.700863         1.011049         1.534435
 H        -1.788819         2.369730        -1.237008
 H        -2.321818         3.649084         1.351604
 H        -0.621780         4.455196        -0.783989
 H        -0.439999         5.353087         0.790907
 H         1.602731         2.230087         1.129071
 H         1.222420         3.698254         2.178289
 H        -0.596494         2.074346         2.712554
