19
Iteration:  3987
 O         0.249303         0.154789         0.342455
 C        -0.704684         1.137578         0.551092
 C        -2.129384         0.970729         0.544606
 C        -1.541835         2.011630        -0.335645
 C        -1.262989         3.242250         0.503295
 C        -0.351979         4.410173         0.119111
 O         0.959574         4.220326         0.911382
 C         0.953971         2.882940         1.312545
 C        -0.402986         2.341028         1.487790
 H         0.362550        -0.298634         1.216965
 H        -2.448155         0.051670        -0.048205
 H        -2.735892         1.154689         1.511566
 H        -1.747342         1.959056        -1.392737
 H        -2.238810         3.535574         0.927543
 H        -0.293044         4.682683        -0.982700
 H        -0.830450         5.293183         0.462720
 H         1.764883         2.299869         0.676946
 H         1.421147         3.011863         2.375761
 H        -0.704973         2.134873         2.500856
