19
Iteration:   461charge 0 multiplicity 1
 O         0.278409         0.307356         0.071810
 C        -0.637401         1.210181         0.581923
 C        -2.098975         0.850055         0.625023
 C        -1.637673         2.134248        -0.097507
 C        -1.321566         3.320733         0.866095
 C        -0.413169         4.277699         0.089958
 O         0.983946         3.874002         0.343701
 C         0.941027         3.030346         1.489527
 C        -0.344703         2.388637         1.633397
 H         0.243130        -0.494731         0.733212
 H        -2.476197         0.102017        -0.137726
 H        -2.531992         0.875288         1.642292
 H        -1.761638         2.183267        -1.191268
 H        -2.267332         3.853788         1.275587
 H        -0.600084         4.328794        -0.968161
 H        -0.555962         5.282746         0.483126
 H         1.857896         2.351657         1.539806
 H         1.072598         3.604268         2.369370
 H        -0.414571         2.244567         2.826450
