19
Iteration:  2650
 O         0.336610         0.262328         0.266027
 C        -0.663838         1.217882         0.614740
 C        -2.093312         0.858633         0.607317
 C        -1.620828         2.062451        -0.149428
 C        -1.361161         3.297139         0.688327
 C        -0.364040         4.382243         0.262862
 O         0.933598         3.723778         0.249549
 C         1.025086         3.063583         1.528017
 C        -0.416648         2.478901         1.623171
 H         0.700711         0.392334        -0.631594
 H        -2.318324         0.118031        -0.164727
 H        -2.985591         0.859644         1.324326
 H        -1.784989         2.244071        -1.191048
 H        -2.261782         3.546785         1.312349
 H        -0.560880         4.821282        -0.733781
 H        -0.567516         5.187341         1.003273
 H         1.726037         2.352302         1.310077
 H         1.169460         3.831127         2.326657
 H        -0.887087         2.303317         2.588595
