19
Iteration:  3833
 O         0.200336         0.047718         0.306825
 C        -0.699316         1.102893         0.599569
 C        -2.172567         0.968153         0.570867
 C        -1.518733         2.001515        -0.341063
 C        -1.277786         3.215254         0.591421
 C        -0.215762         4.372655         0.022031
 O         0.834584         4.369636         0.990204
 C         1.040999         2.991715         1.344245
 C        -0.405081         2.322922         1.551238
 H         0.009946        -0.203159        -0.547333
 H        -2.563816         0.156204        -0.052860
 H        -2.889952         1.353174         1.370821
 H        -1.649598         1.832237        -1.423420
 H        -2.086627         3.607123         1.117824
 H         0.065921         3.856476        -0.996646
 H        -0.462202         5.392856        -0.094213
 H         1.639818         2.376723         0.647099
 H         1.758980         3.011025         2.183953
 H        -0.794858         2.024595         2.504772
