19
Iteration:   343
 O         0.355862         0.195745         0.368407
 C        -0.725710         1.088919         0.673988
 C        -2.195337         0.888562         0.385175
 C        -1.541167         2.174846        -0.107509
 C        -1.313495         3.289846         0.863251
 C        -0.398811         4.467062         0.360031
 O         0.817193         3.878052         0.160743
 C         1.047512         3.047924         1.277150
 C        -0.332621         2.336427         1.588521
 H         0.373279        -0.382643         1.135178
 H        -2.329315         0.306266        -0.568806
 H        -3.067393         0.764109         1.123315
 H        -1.484216         2.224665        -1.174916
 H        -2.190790         3.752467         1.359529
 H        -0.581951         5.131465        -0.542141
 H        -0.174011         5.121592         1.275774
 H         1.985394         2.412314         1.067719
 H         1.357551         3.598041         2.262807
 H        -0.534776         2.137345         2.591714
