19
Iteration:  1343
 O         0.313409         0.474817         0.198662
 C        -0.680942         1.243380         0.702151
 C        -2.114866         0.801626         0.448325
 C        -1.627952         2.129711        -0.181064
 C        -1.373415         3.304424         0.794225
 C        -0.287268         4.343893         0.275259
 O         0.852094         3.619813         0.240657
 C         1.055277         3.055466         1.432041
 C        -0.413099         2.406149         1.702982
 H         0.285921        -0.310881         0.676545
 H        -2.156831        -0.079946        -0.268142
 H        -2.803379         0.767601         1.372157
 H        -1.710536         2.311339        -1.264572
 H        -2.207882         3.856604         1.246238
 H        -0.629034         4.600571        -0.850305
 H        -0.314329         5.189503         0.914800
 H         1.899584         2.365962         1.328748
 H         1.362370         3.770369         2.289383
 H        -0.459137         2.370314         2.922674
