19
Iteration:  4858
 O         0.296591         0.267286         0.196064
 C        -0.670253         1.126668         0.697454
 C        -2.273123         0.871597         0.476666
 C        -1.521714         1.964197        -0.246897
 C        -1.315941         3.261860         0.627314
 C        -0.404561         4.430500         0.139040
 O         0.982285         4.100134         0.606883
 C         1.015787         2.982331         1.510608
 C        -0.378967         2.349112         1.514242
 H         0.717533        -0.284521         0.913791
 H        -2.549642        -0.027872        -0.030250
 H        -2.837773         1.074046         1.500167
 H        -1.599090         1.954892        -1.322553
 H        -2.245062         3.638684         0.958700
 H        -0.331294         4.512518        -0.933951
 H        -0.657979         5.379379         0.692712
 H         1.763419         2.258081         1.067864
 H         1.238259         3.308929         2.584853
 H        -0.762078         2.252747         2.591874
