19
Iteration:  1643charge 0 multiplicity 1
 O         0.288365         0.199651         0.148538
 C        -0.657238         1.226532         0.518393
 C        -2.138305         1.049473         0.610760
 C        -1.613991         2.132627        -0.232314
 C        -1.340713         3.291643         0.813633
 C        -0.448870         4.246516         0.149153
 O         0.939232         3.901959         0.414283
 C         1.046290         3.020640         1.549269
 C        -0.329306         2.332143         1.556225
 H         0.549245        -0.087707         1.116421
 H        -2.455722         0.273254         0.018350
 H        -2.537373         1.173054         1.527604
 H        -1.923382         2.283568        -1.312280
 H        -2.210864         3.510877         1.367730
 H        -0.481874         4.238541        -0.898091
 H        -0.702422         5.332260         0.492857
 H         1.850724         2.288039         1.405095
 H         1.224310         3.522353         2.556823
 H        -0.556443         2.018543         2.620727
