19
Iteration:  2163
 O         0.282237         0.359005         0.120324
 C        -0.695204         1.254123         0.748000
 C        -2.104746         0.824753         0.474042
 C        -1.578536         2.050663        -0.178775
 C        -1.351250         3.308659         0.853039
 C        -0.345567         4.301734         0.250204
 O         0.963077         3.830484         0.250749
 C         1.011197         3.022873         1.442681
 C        -0.456456         2.441225         1.708237
 H         0.020254        -0.569415         0.462673
 H        -2.206284         0.015414        -0.195991
 H        -2.896319         0.884271         1.202911
 H        -1.191103         2.139073        -1.210566
 H        -2.208865         3.737509         1.315368
 H        -0.527873         4.497534        -0.801201
 H        -0.533488         5.233479         0.743529
 H         1.824158         2.229941         1.342572
 H         1.147589         3.719782         2.272520
 H        -0.495186         2.408788         2.847267
