19
Iteration:  4541charge 0 multiplicity 1
 O         0.208664         0.041144         0.360537
 C        -0.671256         1.121346         0.570012
 C        -2.076470         0.898691         0.606026
 C        -1.600612         2.048551        -0.336750
 C        -1.312755         3.267045         0.546323
 C        -0.340111         4.351210         0.138844
 O         0.941359         4.265721         0.827364
 C         0.974225         2.978809         1.410681
 C        -0.386645         2.359009         1.445038
 H         0.920310         0.149562        -0.387649
 H        -2.708266         0.101334         0.117294
 H        -2.712320         1.313241         1.441587
 H        -1.645577         2.012182        -1.421634
 H        -2.296627         3.663161         1.059627
 H        -0.101998         4.420250        -0.965753
 H        -0.653876         5.368661         0.456646
 H         1.778132         2.430216         0.869896
 H         1.366331         2.946915         2.380853
 H        -0.774935         2.165076         2.392498
