19
Iteration:   119
 O         0.238363         0.271775         0.193102
 C        -0.711218         1.229949         0.767704
 C        -2.154826         0.865693         0.521434
 C        -1.509556         2.068945        -0.246502
 C        -1.290655         3.224847         0.787234
 C        -0.443353         4.397533         0.328732
 O         0.870291         3.833346         0.208956
 C         1.026692         3.120309         1.361176
 C        -0.263139         2.392151         1.683697
 H        -0.024707        -0.629817         0.561134
 H        -2.123149        -0.102219         0.135201
 H        -2.977885         0.928407         1.190730
 H        -1.234965         1.986429        -1.276201
 H        -2.219163         3.535537         1.412573
 H        -0.692380         4.843648        -0.553827
 H        -0.505639         5.243389         1.058035
 H         1.832868         2.461101         1.259407
 H         1.429425         3.844469         2.096805
 H        -0.461703         2.387860         2.722947
