19
Iteration:  3005charge 0 multiplicity 1
 O         0.291642         0.174327         0.209400
 C        -0.727372         1.155435         0.586389
 C        -2.201633         0.998461         0.409746
 C        -1.519653         2.132859        -0.218350
 C        -1.344227         3.246946         0.824803
 C        -0.423667         4.321158         0.245140
 O         0.968626         3.809487         0.280056
 C         0.961348         3.193671         1.584853
 C        -0.331612         2.293917         1.640935
 H         1.132255         0.644027         0.683143
 H        -2.332528         0.094148        -0.213798
 H        -2.840801         1.147935         1.252963
 H        -1.396064         2.213524        -1.329302
 H        -2.211645         3.568529         1.296974
 H        -0.508309         4.572265        -0.787027
 H        -0.478759         5.219206         0.911652
 H         1.836423         2.349778         1.823292
 H         0.827695         3.950314         2.406159
 H        -0.543296         2.151982         2.724029
