19
Iteration:  1740
 O         0.394808         0.242675         0.386279
 C        -0.625239         1.213767         0.575661
 C        -2.203618         0.933345         0.374354
 C        -1.618035         2.242324        -0.194088
 C        -1.330938         3.323738         0.899392
 C        -0.382688         4.444982         0.270881
 O         0.850849         3.770626         0.200382
 C         1.022895         2.985023         1.404282
 C        -0.354722         2.258963         1.641766
 H         0.175276        -0.514063         0.985720
 H        -2.317007         0.142877        -0.333623
 H        -2.866202         0.913136         1.263081
 H        -1.737422         2.403111        -1.340056
 H        -2.157878         3.711960         1.414598
 H        -0.764081         4.752677        -0.687040
 H        -0.188891         5.329445         0.846439
 H         1.755366         2.245541         1.282567
 H         1.234869         3.674165         2.278564
 H        -0.542828         2.073506         2.721589
