19
Iteration:    48charge 0 multiplicity 1
 O         0.263696         0.248796         0.266289
 C        -0.695201         1.219924         0.701880
 C        -2.154922         0.964406         0.623289
 C        -1.586107         2.056091        -0.277077
 C        -1.346894         3.193305         0.702670
 C        -0.484612         4.362571         0.285594
 O         0.944965         4.030967         0.358781
 C         1.077412         2.958564         1.314953
 C        -0.285099         2.377484         1.572248
 H         0.206477        -0.539910         0.930702
 H        -2.289544        -0.025625         0.168047
 H        -2.845084         1.011566         1.500253
 H        -1.429907         2.092932        -1.369591
 H        -2.210800         3.464923         1.233437
 H        -0.721117         4.842790        -0.750730
 H        -0.721699         5.204905         0.931893
 H         1.824864         2.243456         0.826562
 H         1.616980         3.234238         2.244494
 H        -0.453350         2.188318         2.687321
