19
Iteration:  3053
 O         0.350582         0.356337         0.322279
 C        -0.654767         1.239837         0.641751
 C        -2.124870         0.829322         0.538287
 C        -1.624770         2.037012        -0.296688
 C        -1.346913         3.281157         0.640781
 C        -0.386689         4.385209         0.325101
 O         1.010765         3.871586         0.394618
 C         1.001289         2.887788         1.494333
 C        -0.490710         2.468124         1.567445
 H         0.374046         0.181584        -0.638290
 H        -2.292963        -0.074248        -0.062239
 H        -2.966342         1.100279         1.240834
 H        -1.634670         2.143682        -1.368515
 H        -2.352140         3.682695         1.173440
 H        -0.411872         4.771001        -0.778651
 H        -0.414266         5.162885         1.103186
 H         1.714080         2.088367         1.265357
 H         1.100708         3.264319         2.542554
 H        -0.752095         2.266354         2.616592
