19
Iteration:  2526
 O         0.253090         0.279714         0.174510
 C        -0.621912         1.226560         0.736515
 C        -2.124780         0.959090         0.651386
 C        -1.396897         2.058400        -0.264049
 C        -1.301686         3.267928         0.721930
 C        -0.443012         4.355994         0.274194
 O         0.870292         3.749276         0.297132
 C         0.939186         3.011351         1.441786
 C        -0.378129         2.407226         1.638555
 H         0.794565         0.749833        -0.378502
 H        -2.469962         0.144066         0.025683
 H        -2.744117         1.194693         1.517760
 H        -1.701677         2.122859        -1.347898
 H        -2.441874         3.408191         1.083810
 H        -0.589909         4.680772        -0.806778
 H        -0.414866         5.215744         0.934371
 H         1.761287         2.230438         1.529980
 H         1.137985         3.694692         2.303308
 H        -0.766838         2.419409         2.678156
