19
Iteration:  2535charge 0 multiplicity 1
 O         0.320056         0.286247         0.201526
 C        -0.602104         1.212642         0.692016
 C        -2.165551         1.025664         0.610470
 C        -1.515781         2.048493        -0.244186
 C        -1.368187         3.230813         0.685326
 C        -0.413636         4.329710         0.270523
 O         0.920066         3.814607         0.258523
 C         0.936998         2.996250         1.515978
 C        -0.395450         2.383147         1.653547
 H         0.889998         0.682015        -0.378558
 H        -2.461940         0.072984         0.303780
 H        -2.764980         1.188974         1.461827
 H        -1.639853         1.856812        -1.337395
 H        -2.181589         3.649552         1.280853
 H        -0.576103         4.754763        -0.725752
 H        -0.475635         5.215091         0.964679
 H         1.612111         2.044148         1.243388
 H         1.243840         3.605091         2.346005
 H        -0.593016         2.363520         2.763407
