19
Iteration:   347charge 0 multiplicity 1
 O         0.342818         0.211729         0.372828
 C        -0.736106         1.081722         0.679582
 C        -2.198050         0.871465         0.373786
 C        -1.579676         2.184555        -0.111217
 C        -1.290524         3.271543         0.847985
 C        -0.401959         4.486730         0.365137
 O         0.841342         3.868676         0.148112
 C         1.049288         3.066385         1.277524
 C        -0.325057         2.309686         1.617240
 H         0.408795        -0.438032         1.189769
 H        -2.378607         0.390885        -0.600309
 H        -2.955055         0.675800         1.080271
 H        -1.355901         2.302433        -1.235342
 H        -2.096942         3.681629         1.388854
 H        -0.568228         5.168448        -0.503556
 H        -0.331807         5.100232         1.261644
 H         1.870332         2.462797         1.062035
 H         1.326258         3.626721         2.144112
 H        -0.473737         2.246020         2.760616
