19
Iteration:  1997
 O         0.239181         0.134564         0.254065
 C        -0.628747         1.189538         0.615773
 C        -2.119255         0.836196         0.532111
 C        -1.550579         2.043574        -0.219763
 C        -1.307243         3.250899         0.754883
 C        -0.310978         4.537609         0.352297
 O         0.906845         3.859077         0.264055
 C         0.985969         3.092930         1.437533
 C        -0.404182         2.428658         1.541020
 H         0.012317        -0.565962         0.864809
 H        -2.414907        -0.074942        -0.031367
 H        -2.774251         1.064256         1.352650
 H        -1.782297         2.196816        -1.272944
 H        -2.066105         3.814068         1.302762
 H        -0.464726         4.931459        -0.680245
 H        -0.404220         5.364485         1.146730
 H         1.950656         2.428412         1.323809
 H         0.949592         3.708406         2.335874
 H        -0.708133         2.448372         2.681956
