19
Iteration:   917
 O         0.387377         0.248520         0.438546
 C        -0.702991         1.160866         0.597826
 C        -2.115478         0.865031         0.463533
 C        -1.613968         2.192141        -0.212486
 C        -1.403247         3.293316         0.804692
 C        -0.386437         4.559313         0.350342
 O         0.890120         3.898997         0.186190
 C         1.034249         2.922648         1.343444
 C        -0.341741         2.285139         1.564559
 H        -0.003631        -0.674051         0.617929
 H        -2.330345        -0.046785        -0.146669
 H        -2.698550         0.900552         1.338336
 H        -1.848140         2.312406        -1.256616
 H        -2.228501         3.617775         1.492000
 H        -0.572009         5.036434        -0.649792
 H        -0.438715         5.325534         1.091150
 H         1.708555         2.151569         1.040266
 H         1.389792         3.391747         2.300478
 H        -0.448569         2.060555         2.719380
