19
Iteration:  1304charge 0 multiplicity 1
 O         0.458978         0.428985         0.129730
 C        -0.675854         1.152713         0.677231
 C        -2.190017         1.002930         0.564925
 C        -1.495447         2.146674        -0.173058
 C        -1.337407         3.320525         0.831131
 C        -0.382030         4.334090         0.189928
 O         0.828007         3.666645         0.245884
 C         0.926064         3.011047         1.456508
 C        -0.404417         2.321428         1.744585
 H         0.626598        -0.464708         0.656936
 H        -2.691032         0.295567        -0.024459
 H        -2.671674         1.249505         1.488633
 H        -1.522312         2.141133        -1.299968
 H        -2.352834         3.619681         1.243607
 H        -0.534950         4.490270        -0.820163
 H        -0.214727         5.397553         0.577300
 H         1.662718         2.210489         1.219707
 H         1.142185         3.707150         2.247641
 H        -0.713238         2.122259         2.691408
