19
Iteration:  1992charge 0 multiplicity 1
 O         0.248948         0.173520         0.234502
 C        -0.642638         1.164128         0.650131
 C        -2.110264         0.869603         0.560854
 C        -1.522419         2.070302        -0.243705
 C        -1.284101         3.255739         0.736061
 C        -0.356344         4.509813         0.355263
 O         0.925946         3.865090         0.234596
 C         0.981536         3.061184         1.437381
 C        -0.420126         2.422199         1.596109
 H        -0.017573        -0.564851         0.842191
 H        -2.453186         0.036755        -0.025510
 H        -2.908071         1.014387         1.350142
 H        -1.623432         2.063760        -1.344125
 H        -2.123022         3.723847         1.313614
 H        -0.542395         4.872138        -0.642222
 H        -0.342827         5.254102         1.133256
 H         1.809033         2.426949         1.366889
 H         1.046594         3.831921         2.268445
 H        -0.774956         2.257564         2.607198
