19
Iteration:  2582
 O         0.278055         0.196239         0.279862
 C        -0.610195         1.238661         0.628423
 C        -2.056701         0.816088         0.538780
 C        -1.791584         2.128290        -0.137596
 C        -1.319815         3.316875         0.810017
 C        -0.360388         4.376107         0.150728
 O         0.993560         3.863488         0.284955
 C         0.992096         3.030964         1.484714
 C        -0.429677         2.351175         1.608061
 H         1.145209         0.620534         0.074784
 H        -2.223591        -0.028604        -0.184453
 H        -2.840775         0.731553         1.324461
 H        -1.840370         2.393600        -1.195104
 H        -2.245738         3.884942         1.278933
 H        -0.541776         4.698261        -0.946406
 H        -0.377193         5.314992         0.715503
 H         1.744014         2.260308         1.384668
 H         1.148298         3.706167         2.356735
 H        -0.788917         2.129342         2.648211
