19
Iteration:  3239charge 0 multiplicity 1
 O         0.259844         0.248799         0.294627
 C        -0.689283         1.213910         0.615438
 C        -2.074168         0.987278         0.420017
 C        -1.465113         2.124790        -0.244584
 C        -1.306745         3.207516         0.801821
 C        -0.448221         4.336183         0.164947
 O         0.929679         3.913764         0.404937
 C         0.933717         3.123639         1.588416
 C        -0.323915         2.251983         1.624934
 H        -0.301659        -0.533969        -0.073144
 H        -2.191705         0.249882        -0.398246
 H        -2.842197         0.995166         1.208597
 H        -1.401454         2.292177        -1.330896
 H        -2.237263         3.501508         1.059373
 H        -0.454163         4.305941        -1.008391
 H        -0.653519         5.316375         0.622264
 H         1.761202         2.376707         1.434576
 H         0.952503         3.781901         2.456247
 H        -0.562955         1.946330         2.684305
