19
Iteration:  1994
 O         0.245401         0.158619         0.239519
 C        -0.633772         1.175788         0.634224
 C        -2.113259         0.850112         0.545036
 C        -1.533291         2.057092        -0.231788
 C        -1.290362         3.244800         0.747152
 C        -0.335043         4.527876         0.357199
 O         0.916043         3.861279         0.246891
 C         0.981638         3.077721         1.439386
 C        -0.417007         2.432303         1.563755
 H        -0.032457        -0.612682         0.902169
 H        -2.444406         0.006015        -0.000630
 H        -2.866959         1.032385         1.352801
 H        -1.703545         2.124150        -1.323051
 H        -2.084763         3.794337         1.324793
 H        -0.494736         4.884439        -0.665318
 H        -0.370495         5.314123         1.148704
 H         1.915639         2.403091         1.332632
 H         0.977745         3.764895         2.273062
 H        -0.770358         2.351207         2.692348
