19
Iteration:   734charge 0 multiplicity 1
 O         0.458620         0.299890         0.175865
 C        -0.576975         1.174612         0.590040
 C        -2.107913         1.053654         0.600875
 C        -1.660758         2.168269        -0.181321
 C        -1.353766         3.294539         0.783310
 C        -0.420113         4.374374         0.277741
 O         0.863090         3.654581         0.227792
 C         0.950691         3.018707         1.521241
 C        -0.409339         2.361859         1.587311
 H         0.405709        -0.620385         0.425930
 H        -2.681091         0.296646         0.009674
 H        -2.577465         1.270138         1.655328
 H        -1.985338         2.182329        -1.180935
 H        -2.065327         3.827341         1.420543
 H        -0.725911         4.641656        -0.712739
 H        -0.289514         5.264952         0.874634
 H         1.931347         2.295811         1.539181
 H         1.085173         3.805795         2.268280
 H        -0.690858         2.179104         2.570813
