19
Iteration:     3
 O         0.305609         0.323679         0.185449
 C        -0.663139         1.205199         0.656684
 C        -2.136591         0.905248         0.596122
 C        -1.559529         2.115167        -0.172985
 C        -1.335769         3.270207         0.785896
 C        -0.414952         4.379406         0.264034
 O         0.898139         3.826195         0.242258
 C         1.008150         3.020665         1.410245
 C        -0.354352         2.353859         1.626483
 H         0.336231        -0.533761         0.766872
 H        -2.359271         0.064606        -0.035568
 H        -2.775210         0.935161         1.511551
 H        -1.561030         2.216760        -1.252097
 H        -2.202050         3.662199         1.224105
 H        -0.646826         4.768582        -0.767521
 H        -0.503196         5.255204         0.861739
 H         1.781746         2.220351         1.319488
 H         1.327267         3.613475         2.291335
 H        -0.572178         2.177787         2.720593
