19
Iteration:  3978charge 0 multiplicity 1
 O         0.189626         0.135919         0.324114
 C        -0.681734         1.142273         0.614903
 C        -2.140485         0.965756         0.566344
 C        -1.468892         1.978771        -0.438203
 C        -1.232817         3.256789         0.511029
 C        -0.392546         4.493368         0.172837
 O         0.845208         4.197713         0.833102
 C         1.015535         2.863270         1.423290
 C        -0.332463         2.327734         1.436366
 H         0.511152        -0.275306         1.168933
 H        -2.691480         0.146669        -0.007724
 H        -2.632842         1.263942         1.580344
 H        -1.735385         1.992863        -1.496886
 H        -2.065437         3.572143         1.036166
 H        -0.037448         4.400499        -0.842205
 H        -0.861469         5.411741         0.523410
 H         1.641111         2.314709         0.656669
 H         1.424547         2.943700         2.444001
 H        -0.700666         2.335425         2.483150
