19
Iteration:  2073charge 0 multiplicity 1
 O         0.221926         0.331268         0.185360
 C        -0.691576         1.157869         0.744547
 C        -2.130624         0.865597         0.540498
 C        -1.463925         2.095965        -0.185218
 C        -1.323239         3.208574         0.753758
 C        -0.367541         4.365691         0.208135
 O         0.975196         3.969140         0.327353
 C         0.968183         2.953667         1.400276
 C        -0.422656         2.449741         1.635955
 H         0.237400        -0.566574         0.633659
 H        -2.264985        -0.025666        -0.121064
 H        -2.770081         0.834335         1.394762
 H        -1.643497         2.088785        -1.237975
 H        -2.138228         3.764975         1.292593
 H        -0.545218         4.753287        -0.813617
 H        -0.541751         5.238144         0.847965
 H         1.613133         1.998948         1.071968
 H         1.431445         3.366217         2.290419
 H        -0.743106         2.357391         2.749044
