19
Iteration:  3214
 O         0.395275         0.229189         0.281734
 C        -0.744131         1.149705         0.592273
 C        -2.194581         0.830387         0.417656
 C        -1.595617         2.075223        -0.274528
 C        -1.359073         3.259083         0.717632
 C        -0.355074         4.406141         0.280968
 O         1.007935         3.958480         0.440273
 C         1.001792         3.083126         1.532348
 C        -0.402430         2.360922         1.567611
 H         0.154452        -0.559259         0.763746
 H        -2.481493         0.027822        -0.266870
 H        -2.948942         1.098546         1.169047
 H        -1.670275         2.367136        -1.322640
 H        -2.346558         3.634000         1.141255
 H        -0.323062         4.649189        -0.788143
 H        -0.582590         5.325501         0.905213
 H         1.825015         2.243613         1.257246
 H         1.109728         3.645885         2.434164
 H        -0.777899         2.362830         2.638265
