19
Iteration:   852
 O         0.207197         0.233426         0.110918
 C        -0.702148         1.086289         0.725679
 C        -2.151379         0.827211         0.643269
 C        -1.560908         2.053068        -0.181425
 C        -1.312339         3.270133         0.709190
 C        -0.348384         4.393596         0.249832
 O         0.967715         3.939021         0.278665
 C         1.002376         3.136981         1.476689
 C        -0.343057         2.398133         1.571836
 H         0.213357        -0.594428         0.479063
 H        -2.459898         0.063653        -0.114341
 H        -2.736002         0.871349         1.537230
 H        -1.575414         2.251818        -1.214141
 H        -2.202432         3.580531         1.207655
 H        -0.480665         5.016591        -0.653397
 H        -0.411687         5.168145         1.079768
 H         1.943799         2.601686         1.524034
 H         1.075120         3.837986         2.364437
 H        -0.563672         2.229736         2.694660
