19
Iteration:  4109charge 0 multiplicity 1
 O         0.198397         0.090822         0.174687
 C        -0.696673         1.124786         0.557558
 C        -2.140295         0.958814         0.679908
 C        -1.552923         1.964049        -0.372290
 C        -1.266862         3.272912         0.516163
 C        -0.241422         4.276055         0.084920
 O         0.863670         4.357015         0.964057
 C         0.980114         3.008966         1.471358
 C        -0.348200         2.352268         1.469087
 H        -0.042808        -0.733970         0.472592
 H        -2.517287         0.092148         0.074790
 H        -2.682535         1.346637         1.661571
 H        -1.786249         1.643663        -1.405768
 H        -2.122385         3.874130         0.927534
 H         0.196024         3.911500        -0.937208
 H        -0.655589         5.220961        -0.157536
 H         1.734422         2.472421         0.833233
 H         1.458382         3.003483         2.481148
 H        -0.770603         2.298035         2.457144
