19
Iteration:   479
 O         0.349870         0.423099         0.018410
 C        -0.651058         1.177575         0.682951
 C        -2.165326         1.001593         0.709661
 C        -1.540183         2.103543        -0.120645
 C        -1.323945         3.262167         0.780112
 C        -0.402420         4.334272         0.064965
 O         0.880235         3.807135         0.306038
 C         0.984018         3.023725         1.550618
 C        -0.362947         2.228710         1.696060
 H         0.461568        -0.524962         0.458234
 H        -2.468443         0.226683         0.075767
 H        -2.760610         1.315348         1.532005
 H        -1.713956         2.251793        -1.161024
 H        -2.131008         3.675716         1.260882
 H        -0.535157         4.142253        -1.019350
 H        -0.641732         5.404339         0.364314
 H         1.808518         2.374221         1.325003
 H         1.279381         3.668740         2.529707
 H        -0.823739         1.978729         2.563674
