19
Iteration:  4755charge 0 multiplicity 1
 O         0.316912         0.305881         0.295107
 C        -0.676397         1.182473         0.602327
 C        -2.126793         0.909153         0.644635
 C        -1.600119         2.003946        -0.252496
 C        -1.298243         3.226742         0.568225
 C        -0.248393         4.288006        -0.001488
 O         0.898219         4.195232         0.848559
 C         0.962862         2.895194         1.335105
 C        -0.442559         2.353045         1.554292
 H         0.188766        -0.207567        -0.556472
 H        -2.576359         0.018540         0.211611
 H        -2.562600         1.105236         1.557271
 H        -1.824650         1.935116        -1.335169
 H        -2.176880         3.695160         1.001791
 H        -0.110999         4.413439        -1.085077
 H        -0.721680         5.201953         0.251018
 H         1.576281         2.131735         0.749488
 H         1.393425         2.916734         2.422830
 H        -0.856737         2.256175         2.589018
