19
Iteration:  1908charge 0 multiplicity 1
 O         0.342549         0.380610         0.216375
 C        -0.672115         1.208743         0.621918
 C        -2.159496         0.845831         0.529819
 C        -1.683088         2.093377        -0.192462
 C        -1.322594         3.321227         0.747509
 C        -0.321519         4.386809         0.278073
 O         0.949829         3.720748         0.180555
 C         0.977228         3.000873         1.551064
 C        -0.376934         2.417434         1.627495
 H         0.222341        -0.320501         0.814656
 H        -2.235511        -0.071498         0.019981
 H        -2.685063         0.859910         1.520447
 H        -1.804420         2.366339        -1.243081
 H        -2.279796         3.692215         1.232665
 H        -0.591316         4.999805        -0.607433
 H        -0.248968         5.222316         1.049095
 H         1.867145         2.125725         1.493055
 H         1.252398         3.896655         2.224345
 H        -0.858689         2.087045         2.661781
