19
Iteration:  2474
 O         0.277551         0.261383         0.359335
 C        -0.681112         1.197999         0.592101
 C        -2.102364         0.874693         0.475683
 C        -1.720528         2.212596        -0.179605
 C        -1.328746         3.326571         0.827131
 C        -0.394610         4.289837         0.198766
 O         0.917856         3.824749         0.222865
 C         1.070119         3.099359         1.522120
 C        -0.352040         2.221546         1.578724
 H         1.155944         0.635877         0.309892
 H        -2.333639         0.173496        -0.384941
 H        -2.642214         0.862871         1.505887
 H        -1.784366         2.385774        -1.284704
 H        -2.148799         3.747748         1.498152
 H        -0.655482         4.529892        -0.896654
 H        -0.441640         5.220391         0.814435
 H         1.872100         2.456636         1.469349
 H         1.324928         3.754811         2.394590
 H        -0.756204         1.948193         2.568144
