19
Iteration:  2000charge 0 multiplicity 1
 O         0.235546         0.119131         0.266760
 C        -0.630509         1.196263         0.601007
 C        -2.123731         0.829077         0.521346
 C        -1.573605         2.039187        -0.212463
 C        -1.328801         3.278329         0.750674
 C        -0.297013         4.535565         0.337376
 O         0.905182         3.863421         0.282135
 C         0.996119         3.098113         1.433413
 C        -0.380244         2.407785         1.541969
 H         0.054905        -0.585020         0.870025
 H        -2.345565        -0.103953        -0.067684
 H        -2.706547         1.092442         1.399953
 H        -1.826103         2.247493        -1.241583
 H        -2.134019         3.766335         1.277054
 H        -0.465044         4.991213        -0.646941
 H        -0.414796         5.337058         1.091813
 H         1.846340         2.522540         1.361051
 H         1.005868         3.697257         2.427337
 H        -0.600039         2.467429         2.547474
