19
Iteration:   648
 O         0.306721         0.221822         0.318575
 C        -0.670720         1.136256         0.678829
 C        -2.212585         1.041604         0.615461
 C        -1.501524         2.139507        -0.299989
 C        -1.275623         3.191175         0.750779
 C        -0.510891         4.369211         0.308956
 O         0.899763         3.996241         0.314322
 C         1.091348         2.988351         1.293783
 C        -0.323157         2.293042         1.536898
 H         0.083904        -0.631957         0.814354
 H        -2.443214         0.074046         0.152412
 H        -3.064796         1.352005         1.352741
 H        -1.624636         2.400487        -1.323963
 H        -2.175575         3.542173         1.347633
 H        -0.653521         4.800941        -0.668741
 H        -0.795879         5.196377         1.065191
 H         1.928737         2.258060         1.070228
 H         1.424489         3.322959         2.289182
 H        -0.529332         2.062549         2.641913
