19
Iteration:  1525
 O         0.284328         0.442616         0.280334
 C        -0.728258         1.248043         0.707011
 C        -2.107145         0.787564         0.409989
 C        -1.514095         2.182584        -0.188860
 C        -1.402216         3.282004         0.915585
 C        -0.389779         4.368291         0.277724
 O         0.927192         3.720661         0.171509
 C         1.040984         2.966636         1.397161
 C        -0.356705         2.381860         1.668911
 H        -0.013051        -0.455571         0.449176
 H        -2.111225         0.018049        -0.324267
 H        -2.968180         0.882499         1.120203
 H        -1.464357         2.399560        -1.291027
 H        -2.233503         3.810180         1.511468
 H        -0.734849         4.620163        -0.689340
 H        -0.356487         5.257056         0.910421
 H         1.856847         2.195274         1.491908
 H         1.278283         3.670912         2.108344
 H        -0.539032         2.159964         2.719762
