19
Iteration:  1653charge 0 multiplicity 1
 O         0.281926         0.202201         0.170094
 C        -0.611792         1.272716         0.496396
 C        -2.144403         0.944863         0.587593
 C        -1.682191         2.158543        -0.197497
 C        -1.363173         3.189129         0.786457
 C        -0.372475         4.300049         0.210401
 O         0.976613         3.890427         0.409497
 C         0.999383         3.035557         1.494749
 C        -0.334103         2.392449         1.591683
 H         0.535067        -0.305832         1.085048
 H        -2.613847         0.129604         0.188665
 H        -2.698804         1.330367         1.365330
 H        -1.727864         2.273590        -1.319047
 H        -2.170578         3.683235         1.214628
 H        -0.549434         4.305395        -0.845079
 H        -0.616228         5.344135         0.641576
 H         1.801387         2.419795         1.207219
 H         1.226026         3.560827         2.415929
 H        -0.603494         2.028927         2.619171
