19
Iteration:  1577
 O         0.313869         0.379680         0.136612
 C        -0.644888         1.253260         0.600237
 C        -2.110574         0.901542         0.680790
 C        -1.631741         2.072555        -0.213467
 C        -1.339090         3.286500         0.708857
 C        -0.300640         4.377711         0.228753
 O         0.928626         3.770335         0.338147
 C         0.917154         3.004811         1.487525
 C        -0.385646         2.349070         1.610524
 H         0.092075        -0.468965         0.355847
 H        -2.350703         0.079562         0.070216
 H        -2.541483         0.955078         1.589788
 H        -1.635957         1.849546        -1.296067
 H        -2.113016         3.834029         1.248881
 H        -0.501731         4.720280        -0.746250
 H        -0.380369         5.267670         0.944618
 H         1.759896         2.294310         1.461595
 H         1.093523         3.791844         2.367088
 H        -0.744143         2.106037         2.651732
