19
Iteration:  4127
 O         0.163336         0.134053         0.150220
 C        -0.681643         1.143231         0.626152
 C        -2.216222         0.915596         0.525102
 C        -1.502199         2.018221        -0.257070
 C        -1.252145         3.191437         0.613471
 C        -0.202669         4.217662        -0.053205
 O         0.803464         4.380442         0.979255
 C         1.062466         3.015022         1.406579
 C        -0.401808         2.355098         1.569160
 H         0.163947        -0.571716         0.737766
 H        -2.586271        -0.040225         0.117889
 H        -2.798353         1.307410         1.311426
 H        -1.480800         2.164354        -1.337933
 H        -2.194939         3.650943         1.072649
 H         0.193382         3.835666        -0.986329
 H        -0.466639         5.240236        -0.330902
 H         1.578421         2.357845         0.715720
 H         1.704176         3.136071         2.332999
 H        -0.647797         2.200806         2.641499
