19
Iteration:  1571
 O         0.370040         0.360841         0.166614
 C        -0.654836         1.226626         0.556084
 C        -2.113742         0.930856         0.666981
 C        -1.597120         2.115284        -0.188431
 C        -1.352110         3.335976         0.780309
 C        -0.317487         4.370312         0.262656
 O         0.950461         3.732437         0.295891
 C         0.885683         3.012507         1.479484
 C        -0.426096         2.362320         1.577571
 H         0.217976        -0.640853         0.359761
 H        -2.349470         0.015862         0.053272
 H        -2.560062         1.124045         1.759520
 H        -1.654477         2.046048        -1.288454
 H        -2.321564         3.687759         1.257853
 H        -0.605847         4.554912        -0.837948
 H        -0.367406         5.272352         0.854823
 H         1.811787         2.406390         1.411819
 H         1.011754         3.573157         2.372887
 H        -0.786167         1.998233         2.523841
