19
Iteration:   653charge 0 multiplicity 1
 O         0.283259         0.222545         0.277939
 C        -0.698054         1.107909         0.712758
 C        -2.181553         1.030188         0.618085
 C        -1.480512         2.134557        -0.278353
 C        -1.294855         3.188653         0.770595
 C        -0.484381         4.418761         0.312055
 O         0.920246         4.004727         0.306438
 C         1.052945         2.975334         1.300082
 C        -0.339596         2.302869         1.560581
 H         0.192024        -0.601929         0.738971
 H        -2.413260         0.057971         0.161503
 H        -2.958726         1.187412         1.286289
 H        -1.390578         2.248545        -1.412823
 H        -2.157502         3.452158         1.387819
 H        -0.734666         4.716312        -0.772902
 H        -0.649723         5.337145         0.912679
 H         1.723332         2.233578         0.910432
 H         1.427466         3.375321         2.325520
 H        -0.568591         2.235373         2.649926
