19
Iteration:   436charge 0 multiplicity 1
 O         0.252497         0.325834         0.169067
 C        -0.675426         1.174454         0.634004
 C        -2.123486         0.824394         0.611114
 C        -1.802918         2.059570        -0.232444
 C        -1.333570         3.273072         0.735138
 C        -0.376740         4.380258         0.208368
 O         0.983883         3.902276         0.275168
 C         1.136324         3.083127         1.543063
 C        -0.302910         2.348849         1.611971
 H         0.165116        -0.643100         0.603370
 H        -2.169983        -0.042179         0.020044
 H        -2.742826         0.828164         1.483961
 H        -2.222486         2.094008        -1.207024
 H        -2.142338         3.702454         1.260932
 H        -0.589558         4.790937        -0.756109
 H        -0.492795         5.167415         0.997692
 H         2.062541         2.535604         1.500352
 H         1.291956         3.774567         2.452387
 H        -0.583448         2.194033         2.681097
