19
Iteration:  1050charge 0 multiplicity 1
 O         0.313803         0.339756         0.001769
 C        -0.554960         1.171769         0.611908
 C        -2.124061         1.009540         0.785049
 C        -1.475237         1.998455        -0.138135
 C        -1.359376         3.287187         0.706848
 C        -0.415314         4.429262         0.153980
 O         0.903985         3.825370         0.379806
 C         0.921912         2.932581         1.532173
 C        -0.418675         2.396765         1.586290
 H         0.317968        -0.480672         0.498635
 H        -2.667875         0.321765         0.169817
 H        -2.654682         1.221036         1.812282
 H        -1.710531         1.884288        -1.211142
 H        -2.287381         3.849403         1.095810
 H        -0.520200         4.509730        -0.933045
 H        -0.510235         5.424980         0.681146
 H         1.645507         2.089858         1.145807
 H         1.147875         3.437196         2.505162
 H        -0.520885         2.168959         2.754709
