19
Iteration:  1191
 O         0.215339         0.181629         0.285765
 C        -0.663649         1.147125         0.685481
 C        -2.088581         0.857694         0.485709
 C        -1.654339         2.092818        -0.174490
 C        -1.237854         3.297248         0.767237
 C        -0.352329         4.461588         0.273037
 O         0.930657         4.000022         0.323354
 C         1.037916         3.012260         1.352721
 C        -0.356380         2.330372         1.601487
 H         0.238995        -0.469042         0.921302
 H        -2.358773         0.060891        -0.278604
 H        -2.931081         0.688671         1.230565
 H        -1.713982         2.182816        -1.217494
 H        -2.185353         3.559604         1.420583
 H        -0.720878         4.881980        -0.743703
 H        -0.684078         5.389061         0.888984
 H         1.676500         2.324142         0.788895
 H         1.437598         3.552777         2.222585
 H        -0.696484         2.308567         2.616622
