19
Iteration:   142charge 0 multiplicity 1
 O         0.391939         0.359527         0.225060
 C        -0.639523         1.162717         0.655868
 C        -2.154868         1.023000         0.552552
 C        -1.428285         2.164173        -0.108141
 C        -1.368848         3.249155         0.844405
 C        -0.453755         4.354395         0.223755
 O         0.856746         3.767565         0.152222
 C         0.955162         3.013455         1.400964
 C        -0.382542         2.272814         1.679362
 H         0.406606        -0.458907         0.683238
 H        -2.682498         0.413696        -0.124690
 H        -2.630388         1.147299         1.495017
 H        -1.727489         2.141430        -1.151644
 H        -2.362777         3.572440         1.331580
 H        -0.774879         4.609100        -0.716572
 H        -0.428579         5.331872         0.760105
 H         1.728409         2.314698         1.273231
 H         1.312420         3.672733         2.202481
 H        -0.532280         2.117297         2.707652
