19
Iteration:  3316charge 0 multiplicity 1
 O         0.431924         0.361359         0.390909
 C        -0.692800         1.228845         0.660780
 C        -2.121784         0.868689         0.468167
 C        -1.615936         2.092109        -0.269786
 C        -1.366403         3.279089         0.653227
 C        -0.374408         4.376257         0.231967
 O         0.918799         3.797848         0.403205
 C         0.945621         2.891386         1.449433
 C        -0.456404         2.405930         1.636487
 H         1.017355         0.893013        -0.275351
 H        -2.315940         0.163978        -0.326548
 H        -2.879894         1.091442         1.247901
 H        -1.854418         2.331457        -1.304700
 H        -2.243602         3.595313         1.225062
 H        -0.409489         4.783085        -0.873730
 H        -0.462980         5.204421         0.964707
 H         1.728088         2.032089         1.173755
 H         1.419660         3.305589         2.354247
 H        -0.814029         2.112169         2.645264
