19
Iteration:  4461charge 0 multiplicity 1
 O         0.314462         0.265062         0.351454
 C        -0.710858         1.182010         0.565489
 C        -2.163334         0.905098         0.582688
 C        -1.686892         2.068866        -0.273557
 C        -1.251808         3.296871         0.596699
 C        -0.187725         4.217427        -0.002812
 O         0.777935         4.265437         0.984749
 C         1.067305         2.887620         1.343228
 C        -0.420417         2.315068         1.448732
 H         0.254528        -0.276714        -0.528622
 H        -2.338996        -0.008742         0.031829
 H        -2.694455         0.846161         1.575808
 H        -1.899434         1.895589        -1.332037
 H        -2.099151         3.849852         1.100201
 H         0.276362         3.711076        -0.927025
 H        -0.456969         5.234594        -0.170938
 H         1.598770         2.451686         0.465290
 H         1.516091         2.939572         2.346336
 H        -0.784564         2.185354         2.454911
