19
Iteration:  4171
 O         0.271457         0.212538         0.268349
 C        -0.685792         1.195894         0.568510
 C        -2.223004         0.866907         0.468941
 C        -1.623546         2.008186        -0.286381
 C        -1.344492         3.289285         0.657573
 C        -0.191980         4.203357         0.052436
 O         0.913725         4.312462         0.913249
 C         1.020123         2.922953         1.351719
 C        -0.397397         2.347960         1.547766
 H         0.457407        -0.078963         1.116924
 H        -2.570136        -0.013166        -0.079747
 H        -2.979910         1.011897         1.200051
 H        -1.691695         2.100281        -1.390968
 H        -2.217852         3.909984         1.045578
 H         0.114034         3.852926        -1.031584
 H        -0.735425         5.178739        -0.019332
 H         1.574881         2.407121         0.464044
 H         1.632822         2.869280         2.340983
 H        -0.584178         2.135400         2.631118
