19
Iteration:   216charge 0 multiplicity 1
 O         0.305804         0.463482        -0.002198
 C        -0.643748         1.131956         0.728915
 C        -2.139133         0.946261         0.707906
 C        -1.542186         2.057375        -0.109354
 C        -1.358052         3.257767         0.761039
 C        -0.422295         4.386242         0.099662
 O         0.963503         3.704352         0.301169
 C         0.964252         3.062194         1.523521
 C        -0.389231         2.345937         1.657683
 H         0.449134        -0.397802         0.223069
 H        -2.562747         0.284021         0.006207
 H        -2.623733         1.000118         1.657669
 H        -1.691597         1.980414        -1.187380
 H        -2.249491         3.681618         1.284537
 H        -0.489859         4.545466        -0.993418
 H        -0.410576         5.412596         0.543342
 H         1.759228         2.353884         1.513141
 H         1.050119         3.783366         2.431760
 H        -0.561285         2.190614         2.787386
