19
Iteration:  3631charge 0 multiplicity 1
 O         0.191084        -0.021434         0.321093
 C        -0.644878         1.099305         0.617032
 C        -2.180227         0.979149         0.615519
 C        -1.584238         2.005950        -0.279256
 C        -1.291603         3.273107         0.517719
 C        -0.292722         4.384903         0.038996
 O         0.864500         4.316808         0.909741
 C         1.050546         2.983074         1.319971
 C        -0.392949         2.326507         1.505276
 H         0.918643         0.344304        -0.290724
 H        -2.702966         0.121769         0.263777
 H        -2.549500         1.268423         1.555407
 H        -1.502846         1.735067        -1.326435
 H        -2.159706         3.681740         0.935559
 H         0.049442         4.270042        -1.020719
 H        -0.897390         5.358173         0.293921
 H         1.599178         2.481436         0.436816
 H         1.560827         3.012234         2.350632
 H        -0.569558         2.154072         2.598863
