19
Iteration:  4366charge 0 multiplicity 1
 O         0.136608         0.060675         0.293383
 C        -0.694298         1.101436         0.589390
 C        -2.185666         0.999183         0.375771
 C        -1.529029         2.035835        -0.287708
 C        -1.228950         3.256209         0.681736
 C        -0.324062         4.233412         0.029245
 O         0.805162         4.368055         0.935351
 C         1.098330         2.993793         1.385444
 C        -0.288781         2.256138         1.484898
 H         0.522292        -0.113464         1.131557
 H        -2.449467         0.174272        -0.273378
 H        -2.957015         1.213311         1.238000
 H        -1.611683         2.243191        -1.354824
 H        -2.023049         3.652647         1.383376
 H        -0.026927         4.016222        -1.062122
 H        -0.895555         5.279621         0.136717
 H         1.823956         2.530089         0.702985
 H         1.579774         3.235091         2.271694
 H        -0.597555         2.176597         2.567771
