19
Iteration:  1574
 O         0.340903         0.372251         0.153107
 C        -0.647648         1.240776         0.573640
 C        -2.114542         0.919010         0.675544
 C        -1.614572         2.094448        -0.205314
 C        -1.349770         3.313905         0.748510
 C        -0.300162         4.372322         0.251052
 O         0.938846         3.748788         0.320908
 C         0.893316         3.003727         1.472414
 C        -0.400305         2.359974         1.594438
 H         0.166838        -0.601629         0.354151
 H        -2.336153         0.015240         0.022550
 H        -2.542326         1.049854         1.731261
 H        -1.620514         1.920034        -1.253198
 H        -2.193546         3.749667         1.244861
 H        -0.587351         4.636273        -0.851138
 H        -0.381786         5.285743         0.916531
 H         1.765043         2.388717         1.428027
 H         1.060564         3.713615         2.410188
 H        -0.788131         2.032206         2.571844
