19
Iteration:   556
 O         0.362613         0.373023         0.249803
 C        -0.661376         1.246543         0.657545
 C        -2.136872         1.016968         0.548947
 C        -1.565505         2.171222        -0.165061
 C        -1.341432         3.205331         0.820853
 C        -0.445218         4.308183         0.225654
 O         0.886446         3.763490         0.219030
 C         1.013742         2.996616         1.376240
 C        -0.363663         2.317440         1.707935
 H         0.307598        -0.412241         0.718290
 H        -2.420207         0.359333        -0.292619
 H        -2.824218         1.090028         1.348661
 H        -1.602091         2.240190        -1.256735
 H        -2.198503         3.577048         1.283847
 H        -0.795618         4.599681        -0.773938
 H        -0.519168         5.250422         0.840568
 H         1.732931         2.201341         1.189569
 H         1.416272         3.570412         2.202628
 H        -0.464713         1.966676         2.660301
