19
Iteration:  3742charge 0 multiplicity 1
 O         0.276838         0.295263         0.187183
 C        -0.764310         1.186461         0.620084
 C        -2.198514         0.866751         0.674339
 C        -1.621802         2.034023        -0.282709
 C        -1.297098         3.230029         0.515565
 C        -0.187614         4.223502         0.054895
 O         0.911373         4.273399         0.946403
 C         0.999278         2.857720         1.318701
 C        -0.468102         2.358758         1.499979
 H         0.891906         0.256862         0.939403
 H        -2.609374         0.090110         0.091761
 H        -2.718974         1.257614         1.459674
 H        -1.505583         1.959022        -1.375620
 H        -2.187349         3.573508         0.877837
 H         0.186803         3.880400        -0.992337
 H        -0.702909         5.239693         0.076412
 H         1.661069         2.245218         0.575688
 H         1.577312         2.770370         2.320930
 H        -0.543876         2.328754         2.585336
