19
Iteration:  1566
 O         0.418922         0.343199         0.183321
 C        -0.661915         1.204120         0.549977
 C        -2.108070         0.947756         0.656483
 C        -1.575424         2.152066        -0.174898
 C        -1.365084         3.352286         0.819569
 C        -0.368082         4.360562         0.256655
 O         0.959250         3.720218         0.250916
 C         0.911191         3.003641         1.498525
 C        -0.468285         2.341730         1.551685
 H         0.216301        -0.577216         0.402198
 H        -2.475350         0.082089         0.165782
 H        -2.586610         1.158670         1.518264
 H        -1.786372         2.314486        -1.256854
 H        -2.328761         3.616041         1.228152
 H        -0.565051         4.510235        -0.760900
 H        -0.318407         5.347170         0.800303
 H         1.781999         2.337129         1.448566
 H         0.984529         3.604371         2.487648
 H        -0.726663         2.020257         2.604763
