19
Iteration:  2142
 O         0.277129         0.364641         0.142895
 C        -0.644483         1.183738         0.715517
 C        -2.128395         0.938144         0.501379
 C        -1.462536         2.103723        -0.174424
 C        -1.328719         3.336536         0.764719
 C        -0.431447         4.377813         0.206262
 O         0.851058         3.714290         0.209292
 C         1.004761         3.022383         1.575051
 C        -0.356753         2.358797         1.706875
 H         0.347152        -0.368351         0.675058
 H        -2.272971         0.093019        -0.131885
 H        -2.862118         0.947814         1.314332
 H        -1.639016         2.282411        -1.274277
 H        -2.242015         3.461330         1.203006
 H        -0.590481         4.787609        -0.781462
 H        -0.391190         5.248008         0.848853
 H         1.817941         2.368054         1.284080
 H         1.256340         3.714962         2.385573
 H        -0.692919         2.121007         2.779990
