19
Iteration:  4029
 O         0.227788         0.277008         0.317481
 C        -0.730498         1.184824         0.740055
 C        -2.172346         0.896979         0.420119
 C        -1.475523         2.090323        -0.205282
 C        -1.263860         3.222922         0.649585
 C        -0.286821         4.215625        -0.037654
 O         0.806679         4.281628         0.910196
 C         1.041335         2.878062         1.276166
 C        -0.378488         2.296044         1.562074
 H        -0.092056        -0.568038         0.374166
 H        -2.259339         0.133290        -0.378994
 H        -3.076036         0.914875         1.049189
 H        -1.322981         2.212790        -1.270390
 H        -2.104200         3.930876         1.045440
 H         0.201141         4.000687        -1.055265
 H        -0.731686         5.218889        -0.007345
 H         1.539905         2.456496         0.386523
 H         1.671560         2.805379         2.243710
 H        -0.577563         2.327354         2.628370
