19
Iteration:  4975charge 0 multiplicity 1
 O         0.472219         0.368861         0.470092
 C        -0.660236         1.203065         0.634459
 C        -2.133611         0.912104         0.404785
 C        -1.442408         2.160015        -0.261803
 C        -1.443085         3.299376         0.723294
 C        -0.428920         4.389030         0.331781
 O         0.897923         3.727240         0.277370
 C         0.975165         2.912144         1.443591
 C        -0.486145         2.425702         1.609832
 H         0.329551        -0.158590        -0.398514
 H        -2.326006         0.354654        -0.445740
 H        -2.888231         0.894330         1.134527
 H        -1.425370         2.233410        -1.336174
 H        -2.503103         3.609630         1.016609
 H        -0.720056         4.836351        -0.690306
 H        -0.439953         5.045787         1.257838
 H         1.682483         2.098262         1.323451
 H         1.184139         3.422182         2.414655
 H        -0.766159         2.282036         2.631490
