19
Iteration:   333
 O         0.342760         0.185531         0.340727
 C        -0.653363         1.183132         0.667636
 C        -2.162260         0.937643         0.437551
 C        -1.474695         2.115988        -0.198440
 C        -1.372090         3.360085         0.862625
 C        -0.424240         4.448918         0.418802
 O         0.848684         3.857213         0.169481
 C         1.041104         2.963375         1.309923
 C        -0.354623         2.351768         1.568539
 H         0.334559        -0.413863         1.034766
 H        -2.246891        -0.007799        -0.166191
 H        -2.990566         1.155270         1.176571
 H        -1.763609         2.297330        -1.234527
 H        -2.295227         3.591562         1.353443
 H        -0.903416         4.818291        -0.563275
 H        -0.410719         5.335933         1.118595
 H         1.830768         2.211200         1.009376
 H         1.255255         3.637390         2.189870
 H        -0.456810         2.131002         2.602035
