19
Iteration:  2252charge 0 multiplicity 1
 O         0.234391         0.225165         0.131338
 C        -0.690818         1.121697         0.756384
 C        -2.157922         0.881697         0.491919
 C        -1.525081         2.078031        -0.210186
 C        -1.357528         3.262927         0.833578
 C        -0.458368         4.443776         0.247950
 O         1.016355         3.888394         0.265603
 C         0.992135         3.087098         1.453717
 C        -0.349961         2.413641         1.655563
 H         0.352239        -0.617333         0.720239
 H        -2.351701        -0.091100        -0.030517
 H        -2.995669         1.086605         1.107890
 H        -1.117883         2.182242        -1.262830
 H        -2.191424         3.603958         1.324644
 H        -0.630813         4.708089        -0.801461
 H        -0.393454         5.335421         0.871024
 H         1.849779         2.445235         1.458939
 H         1.121002         3.825680         2.315090
 H        -0.473934         2.011892         2.681710
