19
Iteration:   671
 O         0.194733         0.220227         0.160839
 C        -0.622130         1.169670         0.752714
 C        -2.162163         0.839630         0.495480
 C        -1.438118         2.003803        -0.116026
 C        -1.300032         3.347110         0.779343
 C        -0.423755         4.456457         0.241863
 O         0.885004         3.987823         0.311442
 C         1.036417         2.940984         1.285420
 C        -0.374174         2.419181         1.712514
 H         0.197662        -0.442358         0.832272
 H        -2.514647         0.065460        -0.215966
 H        -2.829548         1.123882         1.355681
 H        -1.399161         1.993770        -1.155425
 H        -2.308350         3.806597         1.093394
 H        -0.575141         4.828697        -0.777834
 H        -0.676502         5.349164         0.941780
 H         1.730205         2.156421         0.980696
 H         1.561052         3.282269         2.217029
 H        -0.443853         2.161897         2.842103
