19
Iteration:  1386charge 0 multiplicity 1
 O         0.364834         0.289714         0.229454
 C        -0.677401         1.221247         0.579603
 C        -2.161777         0.979983         0.619324
 C        -1.585516         2.113597        -0.244469
 C        -1.318707         3.280071         0.754922
 C        -0.411303         4.354434         0.241957
 O         0.880135         3.864377         0.329257
 C         0.999829         2.961029         1.433764
 C        -0.313106         2.315918         1.614534
 H         0.254897        -0.583825         0.725514
 H        -2.550930         0.005393         0.215618
 H        -2.698538         1.348823         1.581341
 H        -1.918302         2.216977        -1.288079
 H        -2.209074         3.744555         1.118140
 H        -0.549696         4.633080        -0.901624
 H        -0.518611         5.266454         0.849378
 H         1.929002         2.416114         1.343296
 H         1.328699         3.560809         2.302149
 H        -0.755642         1.984744         2.603431
