19
Iteration:  4462
 O         0.311486         0.259771         0.351650
 C        -0.714284         1.187118         0.563904
 C        -2.156583         0.900373         0.570266
 C        -1.689892         2.063477        -0.269725
 C        -1.244932         3.305813         0.601911
 C        -0.186342         4.210270        -0.010818
 O         0.776524         4.262709         0.981644
 C         1.068444         2.891822         1.349275
 C        -0.419978         2.319225         1.457214
 H         0.248674        -0.255851        -0.523995
 H        -2.363700        -0.002805         0.012800
 H        -2.713405         0.854492         1.596323
 H        -1.877902         1.890618        -1.317718
 H        -2.118009         3.865505         1.105294
 H         0.272366         3.733786        -0.902971
 H        -0.502979         5.227730        -0.153945
 H         1.596561         2.482566         0.472504
 H         1.541336         2.931889         2.313403
 H        -0.762196         2.166591         2.441629
