19
Iteration:  2170charge 0 multiplicity 1
 O         0.301183         0.375412         0.158158
 C        -0.647774         1.190411         0.739383
 C        -2.159864         0.827659         0.462758
 C        -1.599066         2.091848        -0.169803
 C        -1.405426         3.331992         0.833369
 C        -0.361643         4.303625         0.205684
 O         1.013561         3.879731         0.226614
 C         0.985059         2.990216         1.489527
 C        -0.411523         2.402661         1.692000
 H         0.005269        -0.449166         0.477438
 H        -2.190463        -0.164057        -0.031948
 H        -2.876283         0.909720         1.293328
 H        -1.403551         2.190109        -1.204307
 H        -2.420728         3.614718         1.400152
 H        -0.586976         4.600010        -0.850782
 H        -0.251439         5.307490         0.799505
 H         1.910047         2.303415         1.267959
 H         1.254409         3.584884         2.410343
 H        -0.660077         2.138989         2.730308
