19
Iteration:  2759charge 0 multiplicity 1
 O         0.320802         0.100365         0.321394
 C        -0.617305         1.166641         0.583883
 C        -2.185209         0.951750         0.598804
 C        -1.555683         2.066925        -0.242935
 C        -1.380924         3.286710         0.756689
 C        -0.436925         4.411745         0.251080
 O         0.965651         3.867044         0.289286
 C         0.967403         3.089879         1.487758
 C        -0.342112         2.400176         1.600083
 H         0.552865         0.344078        -0.548285
 H        -2.575383         0.191153        -0.111543
 H        -2.888354         1.139164         1.491646
 H        -1.808762         2.079631        -1.331821
 H        -2.291926         3.595442         1.120935
 H        -0.565995         4.797191        -0.785205
 H        -0.489952         5.259567         0.995254
 H         2.081946         2.507296         1.488747
 H         1.107067         3.814177         2.316058
 H        -0.481858         2.070509         2.662725
