19
Iteration:  1937
 O         0.341028         0.385329         0.273113
 C        -0.670556         1.181625         0.690543
 C        -2.117492         0.885030         0.435950
 C        -1.587526         2.197419        -0.119410
 C        -1.362173         3.333669         0.816793
 C        -0.377966         4.349065         0.199575
 O         0.936515         3.793018         0.207772
 C         0.969552         2.894380         1.412769
 C        -0.405285         2.350294         1.695091
 H         0.390610        -0.211369         0.995280
 H        -2.247238         0.049687        -0.283874
 H        -2.812785         0.786365         1.280403
 H        -1.682222         2.439891        -1.179184
 H        -2.227805         3.838408         1.222710
 H        -0.582813         4.650453        -0.823421
 H        -0.390082         5.257661         0.809584
 H         1.687816         2.221941         1.230272
 H         1.271677         3.473545         2.275396
 H        -0.617843         2.116169         2.688281
