19
Iteration:  4657charge 0 multiplicity 1
 O         0.222416         0.085783         0.297664
 C        -0.663441         1.127579         0.624011
 C        -2.160003         0.998879         0.664324
 C        -1.556922         1.950163        -0.344910
 C        -1.249638         3.205172         0.477717
 C        -0.275182         4.450688         0.052907
 O         0.807089         4.334680         0.969447
 C         1.047247         2.961555         1.307720
 C        -0.354806         2.301658         1.446270
 H        -0.292484        -0.805963         0.175071
 H        -2.553513         0.001926         0.379758
 H        -2.583841         1.165819         1.633067
 H        -1.629812         1.778640        -1.419770
 H        -2.134686         3.620811         0.846241
 H        -0.083304         4.501659        -1.023307
 H        -0.894829         5.311774         0.320107
 H         1.695741         2.502572         0.640159
 H         1.654144         2.804033         2.307546
 H        -0.486897         2.231314         2.640005
