19
Iteration:   897charge 0 multiplicity 1
 O         0.302942         0.193306         0.369679
 C        -0.582657         1.231583         0.564213
 C        -2.096368         1.031393         0.513731
 C        -1.528511         2.215364        -0.210973
 C        -1.319601         3.251617         0.829256
 C        -0.493005         4.314389         0.287748
 O         0.844045         3.872264         0.304189
 C         1.014326         3.009714         1.332296
 C        -0.309844         2.330895         1.571928
 H        -0.161792        -0.580319         0.414296
 H        -2.337056         0.062952        -0.083388
 H        -2.684628         1.099358         1.481098
 H        -1.713380         2.332049        -1.285993
 H        -2.186942         3.633109         1.304949
 H        -0.870418         4.557554        -0.709452
 H        -0.716157         5.257109         0.856929
 H         1.894260         2.222518         1.129758
 H         1.450108         3.437519         2.272789
 H        -0.621970         2.085590         2.668127
