19
Iteration:  3570charge 0 multiplicity 1
 O         0.237105         0.056693         0.451328
 C        -0.729417         1.145939         0.625883
 C        -2.222007         0.940089         0.426510
 C        -1.540272         2.090821        -0.287588
 C        -1.264695         3.223334         0.731335
 C        -0.341713         4.269966         0.054011
 O         0.877589         4.339636         0.839719
 C         1.047040         2.931655         1.186213
 C        -0.365821         2.337497         1.574406
 H         1.179610         0.503810         0.217776
 H        -2.436882         0.100263        -0.244723
 H        -2.949312         1.135305         1.295713
 H        -1.843441         2.168226        -1.347086
 H        -2.207854         3.714289         1.234055
 H         0.005194         3.851769        -0.942852
 H        -0.746294         5.203788        -0.134852
 H         1.626548         2.432827         0.348185
 H         1.698354         2.841518         2.068711
 H        -0.555104         2.215843         2.638167
