19
Iteration:   902
 O         0.326145         0.206835         0.401365
 C        -0.559861         1.254032         0.560693
 C        -2.074620         0.994977         0.522737
 C        -1.599297         2.172938        -0.239748
 C        -1.255578         3.278512         0.839728
 C        -0.490907         4.380397         0.302983
 O         0.837484         3.876027         0.288105
 C         0.998908         2.941806         1.326555
 C        -0.339049         2.318394         1.577308
 H        -0.205820        -0.677346         0.501867
 H        -2.325641         0.273904        -0.212450
 H        -2.788812         1.102114         1.379914
 H        -1.809608         2.318988        -1.309335
 H        -2.212883         3.586523         1.366908
 H        -0.882967         4.628623        -0.700251
 H        -0.568621         5.359386         0.881150
 H         1.851285         2.284575         1.112470
 H         1.408024         3.435341         2.216795
 H        -0.620584         2.043974         2.539876
