19
Iteration:   835
 O         0.276439         0.207891         0.115004
 C        -0.629538         1.285580         0.545529
 C        -2.120142         0.908566         0.659196
 C        -1.675129         2.009240        -0.187701
 C        -1.364704         3.272658         0.723872
 C        -0.396029         4.406075         0.289746
 O         1.019751         3.861313         0.294488
 C         0.985918         3.093877         1.505898
 C        -0.384981         2.346666         1.606488
 H         0.470959        -0.195590         0.921153
 H        -2.253485        -0.095842         0.189947
 H        -2.678809         1.216152         1.606275
 H        -1.987759         1.887145        -1.269399
 H        -2.287734         3.770755         1.190353
 H        -0.488838         4.678043        -0.760515
 H        -0.400105         5.335605         0.893394
 H         1.883422         2.328508         1.439141
 H         1.282854         3.710032         2.378226
 H        -0.652072         2.157241         2.620508
