19
Iteration:  2903charge 0 multiplicity 1
 O         0.265091         0.144901         0.323071
 C        -0.671997         1.185775         0.650647
 C        -2.129171         0.910128         0.455834
 C        -1.618127         2.103241        -0.208740
 C        -1.328337         3.255694         0.762424
 C        -0.371153         4.385567         0.190927
 O         0.969579         3.943002         0.314943
 C         0.994106         3.038268         1.525379
 C        -0.385633         2.378961         1.625063
 H         0.905611         0.551755        -0.206945
 H        -2.229944         0.085540        -0.249310
 H        -2.896830         0.751709         1.225600
 H        -1.872805         2.338170        -1.228715
 H        -2.137156         3.645892         1.275409
 H        -0.607280         4.702314        -0.804308
 H        -0.483600         5.295627         0.808040
 H         1.748919         2.156798         1.280929
 H         1.210789         3.554597         2.480076
 H        -0.657994         2.187727         2.686948
