19
Iteration:  3873
 O         0.343830         0.266522         0.443605
 C        -0.752072         1.112049         0.634889
 C        -2.207963         0.940809         0.558758
 C        -1.657428         1.969673        -0.330647
 C        -1.287485         3.268098         0.510728
 C        -0.188749         4.402245         0.077080
 O         0.806610         4.230047         1.046494
 C         1.051126         2.830372         1.236225
 C        -0.366191         2.314859         1.422892
 H         0.131835        -0.528638        -0.231745
 H        -2.626782         0.271057        -0.164360
 H        -2.865882         1.155305         1.315100
 H        -1.778102         2.005451        -1.438046
 H        -2.265409         3.697043         0.998733
 H         0.285644         4.210308        -0.842540
 H        -0.553442         5.437487        -0.061802
 H         1.537331         2.422753         0.272231
 H         1.825350         2.643247         2.033598
 H        -0.583941         2.468332         2.485590
