19
Iteration:  1193charge 0 multiplicity 1
 O         0.209371         0.177623         0.279118
 C        -0.666498         1.170123         0.687218
 C        -2.086663         0.869519         0.492209
 C        -1.647896         2.092353        -0.180382
 C        -1.221602         3.275089         0.770052
 C        -0.362601         4.449661         0.249737
 O         0.908958         3.994934         0.346646
 C         1.040981         3.021319         1.344674
 C        -0.341788         2.349307         1.603255
 H         0.207034        -0.487971         0.945723
 H        -2.339106         0.045549        -0.262692
 H        -2.936013         0.721696         1.198913
 H        -1.729119         2.191625        -1.242926
 H        -2.195371         3.529607         1.398892
 H        -0.676150         4.864002        -0.695515
 H        -0.670798         5.388532         0.890131
 H         1.722092         2.272176         0.775971
 H         1.439208         3.521443         2.245960
 H        -0.667490         2.240326         2.622038
