19
Iteration:   656charge 0 multiplicity 1
 O         0.264541         0.220249         0.254670
 C        -0.713586         1.111657         0.724808
 C        -2.153292         1.006844         0.591130
 C        -1.474433         2.109646        -0.253403
 C        -1.305885         3.204533         0.782189
 C        -0.466455         4.452871         0.305779
 O         0.926936         4.009164         0.304218
 C         1.024488         2.969198         1.318241
 C        -0.339224         2.314355         1.587320
 H         0.272644        -0.616172         0.705800
 H        -2.410987         0.073697         0.096353
 H        -2.933035         1.179954         1.391552
 H        -1.293612         2.120895        -1.379913
 H        -2.170567         3.414406         1.361691
 H        -0.765153         4.624058        -0.727801
 H        -0.532734         5.373176         0.822927
 H         1.682031         2.176750         0.784507
 H         1.398634         3.393471         2.213657
 H        -0.558159         2.338577         2.605167
