19
Iteration:   419
 O         0.335591         0.308004         0.188520
 C        -0.678411         1.185142         0.606216
 C        -2.179371         0.887051         0.680476
 C        -1.586846         2.070783        -0.131635
 C        -1.315666         3.244941         0.692648
 C        -0.384852         4.381757         0.322075
 O         0.963875         3.884960         0.285722
 C         0.960573         3.073044         1.380930
 C        -0.343311         2.342266         1.535551
 H         0.036924        -0.609771         0.493260
 H        -2.678465         0.078460         0.046394
 H        -2.769148         1.097566         1.622944
 H        -1.578316         2.073495        -1.232500
 H        -2.213258         3.609839         1.335687
 H        -0.549734         4.836698        -0.678268
 H        -0.447275         5.224330         1.034264
 H         1.840155         2.354417         1.315897
 H         1.076410         3.699978         2.306992
 H        -0.556756         2.103145         2.613061
