19
Iteration:  1085
 O         0.309628         0.428666         0.189200
 C        -0.696807         1.293260         0.625728
 C        -2.196792         0.798598         0.495593
 C        -1.741261         2.080218        -0.119448
 C        -1.340242         3.256264         0.861013
 C        -0.324295         4.272950         0.211655
 O         1.007003         3.824369         0.286300
 C         1.027887         3.069790         1.452380
 C        -0.339234         2.365371         1.593141
 H         0.237435        -0.281824         0.769107
 H        -2.388080        -0.034053        -0.252903
 H        -2.845762         0.783494         1.421139
 H        -1.805550         2.121201        -1.171231
 H        -2.204750         3.783916         1.286622
 H        -0.589734         4.478577        -0.798784
 H        -0.464697         5.235903         0.750479
 H         1.970245         2.334090         1.435303
 H         1.319401         3.721667         2.281722
 H        -0.353061         1.949964         2.713526
