19
Iteration:  4128charge 0 multiplicity 1
 O         0.161901         0.136210         0.151517
 C        -0.682371         1.148878         0.627658
 C        -2.217749         0.915043         0.517313
 C        -1.502345         2.022111        -0.246391
 C        -1.252706         3.186949         0.614676
 C        -0.200072         4.211761        -0.055086
 O         0.797829         4.381602         0.976723
 C         1.062102         3.008964         1.401698
 C        -0.394166         2.354893         1.571717
 H         0.198571        -0.590704         0.751458
 H        -2.563791        -0.054164         0.074533
 H        -2.836787         1.337427         1.318764
 H        -1.476926         2.159203        -1.336201
 H        -2.198820         3.701303         1.060605
 H         0.197438         3.871213        -0.972807
 H        -0.478487         5.199255        -0.326305
 H         1.564822         2.378202         0.751073
 H         1.719482         3.125495         2.330427
 H        -0.630540         2.192898         2.626183
