19
Iteration:  2156
 O         0.253933         0.366758         0.120930
 C        -0.717855         1.249207         0.739565
 C        -2.079518         0.835175         0.498816
 C        -1.524427         2.095859        -0.159835
 C        -1.305378         3.250925         0.803652
 C        -0.390314         4.349995         0.237587
 O         0.917837         3.755160         0.290099
 C         1.010990         3.057308         1.428391
 C        -0.401623         2.429537         1.721292
 H         0.187704        -0.636189         0.449309
 H        -2.189867         0.086773        -0.369144
 H        -2.954356         0.900486         1.188264
 H        -1.303950         2.098253        -1.268168
 H        -2.110671         3.887483         1.198042
 H        -0.658681         4.485995        -0.824814
 H        -0.558935         5.300182         0.852874
 H         1.671209         2.293638         1.417503
 H         1.288251         3.752965         2.263099
 H        -0.610243         2.437023         2.771070
