19
Iteration:  1958
 O         0.361557         0.385000         0.234453
 C        -0.681094         1.242410         0.722425
 C        -2.210171         1.007496         0.496168
 C        -1.466112         2.091380        -0.262248
 C        -1.311668         3.276460         0.805701
 C        -0.462262         4.323637         0.242495
 O         0.852758         3.761638         0.293812
 C         1.050293         2.933161         1.403137
 C        -0.374162         2.395504         1.701630
 H         0.306286        -0.540587         0.757359
 H        -2.530631         0.108106        -0.109301
 H        -2.966633         1.413624         1.185045
 H        -1.298723         2.126961        -1.340402
 H        -2.226461         3.382908         1.338364
 H        -0.697396         4.475468        -0.805794
 H        -0.484865         5.300434         0.677037
 H         1.709722         2.199251         1.220404
 H         1.502250         3.591836         2.156412
 H        -0.667769         2.131877         2.646430
