19
Iteration:   405
 O         0.370284         0.251593         0.179969
 C        -0.633837         1.142522         0.664749
 C        -2.130813         1.034069         0.669477
 C        -1.469531         2.045930        -0.266167
 C        -1.339922         3.298333         0.840089
 C        -0.410898         4.468365         0.275754
 O         0.870428         3.896101         0.199731
 C         0.977183         2.941010         1.438836
 C        -0.429392         2.307667         1.615377
 H         0.189453        -0.625469         0.369399
 H        -2.409078         0.105665         0.210378
 H        -2.778704         1.396863         1.473952
 H        -1.727158         2.070145        -1.286321
 H        -2.332360         3.673907         1.285848
 H        -0.747242         4.816294        -0.655758
 H        -0.447535         5.272502         1.007144
 H         1.745341         2.211740         1.119344
 H         1.250247         3.486028         2.267469
 H        -0.730264         2.148580         2.757442
