19
Iteration:   767charge 0 multiplicity 1
 O         0.207560         0.508247         0.118399
 C        -0.697865         1.212771         0.753875
 C        -2.078919         0.811789         0.549019
 C        -1.622508         2.065361        -0.141807
 C        -1.370647         3.315077         0.735546
 C        -0.371833         4.317909         0.208113
 O         0.987419         3.741550         0.250830
 C         1.047522         3.025651         1.492024
 C        -0.367067         2.409862         1.702857
 H         0.230197        -0.544505         0.293841
 H        -2.109817         0.045517        -0.304537
 H        -2.804547         0.550483         1.409829
 H        -1.616417         1.988364        -1.183055
 H        -2.206767         3.813249         1.248618
 H        -0.695189         4.489578        -0.801437
 H        -0.402594         5.288107         0.754349
 H         2.018962         2.266941         1.547961
 H         1.237492         3.730607         2.322704
 H        -0.625419         2.254218         2.693884
