19
Iteration:  2261
 O         0.239325         0.212932         0.142479
 C        -0.690809         1.206801         0.741347
 C        -2.180661         0.914379         0.460424
 C        -1.493540         2.091220        -0.192936
 C        -1.335743         3.220247         0.803307
 C        -0.432401         4.425187         0.246140
 O         0.981988         3.877425         0.256284
 C         0.990863         3.105299         1.435600
 C        -0.320326         2.318086         1.731891
 H         0.489014        -0.465792         0.878246
 H        -2.360486         0.220548        -0.311929
 H        -2.912154         1.081364         1.192603
 H        -1.395621         2.080365        -1.328437
 H        -2.298672         3.553551         1.307633
 H        -0.886092         4.571820        -0.713341
 H        -0.460307         5.449843         0.775461
 H         1.894355         2.402127         1.401026
 H         1.040069         3.766255         2.343356
 H        -0.486721         2.290028         2.848765
