19
Iteration:  3009
 O         0.316612         0.153121         0.216894
 C        -0.697175         1.157938         0.622654
 C        -2.203810         1.012559         0.426323
 C        -1.515623         2.146775        -0.213043
 C        -1.327787         3.237283         0.822800
 C        -0.450146         4.346997         0.218393
 O         0.983293         3.797212         0.313038
 C         0.933895         3.147393         1.574469
 C        -0.348420         2.314454         1.595016
 H         1.114542         0.629877         0.436770
 H        -2.225314         0.173529        -0.267293
 H        -2.914496         1.229142         1.251094
 H        -1.382587         2.348170        -1.241632
 H        -2.275558         3.598088         1.495103
 H        -0.645144         4.514991        -0.912927
 H        -0.548844         5.176772         0.915000
 H         1.691933         2.447605         1.726365
 H         0.993634         3.881634         2.409366
 H        -0.687191         2.193712         2.634354
