19
Iteration:  4585charge 0 multiplicity 1
 O         0.205262         0.169620         0.309490
 C        -0.723182         1.163344         0.683528
 C        -2.186168         0.933261         0.412487
 C        -1.524754         2.049813        -0.267082
 C        -1.312528         3.154960         0.680095
 C        -0.338217         4.272281         0.063739
 O         0.887034         4.302529         0.872311
 C         1.035018         2.908146         1.223866
 C        -0.378885         2.373179         1.571193
 H         1.003636         0.267339         0.959477
 H        -2.408670        -0.058592        -0.137712
 H        -2.873662         1.040665         1.273519
 H        -1.336275         2.225801        -1.347378
 H        -2.223309         3.694236         1.154849
 H         0.017055         3.965426        -0.979731
 H        -0.772935         5.313064         0.099248
 H         1.649840         2.189003         0.524672
 H         1.692693         2.928399         2.027102
 H        -0.481027         2.403523         2.613262
