19
Iteration:  3806charge 0 multiplicity 1
 O         0.109453         0.029648         0.354742
 C        -0.645046         1.138774         0.540553
 C        -2.196500         0.985734         0.469071
 C        -1.612239         2.094483        -0.295881
 C        -1.210117         3.158472         0.654980
 C        -0.306995         4.220641         0.013905
 O         0.809260         4.362749         0.886434
 C         1.092558         3.038954         1.462998
 C        -0.257817         2.317596         1.513252
 H         0.333502        -0.106604        -0.519585
 H        -2.542479         0.294938        -0.277903
 H        -2.890158         1.175941         1.232286
 H        -1.324575         2.113911        -1.341069
 H        -2.028273         3.620541         1.331032
 H        -0.092548         3.932583        -0.982200
 H        -0.739937         5.290247        -0.089796
 H         1.911126         2.479080         1.056136
 H         1.534680         3.269699         2.439961
 H        -0.624806         1.976783         2.502575
