19
Iteration:  2514charge 0 multiplicity 1
 O         0.221008         0.242482         0.209457
 C        -0.665314         1.172425         0.646489
 C        -2.059463         0.899071         0.606482
 C        -1.453250         2.117938        -0.167972
 C        -1.343198         3.267237         0.727745
 C        -0.399985         4.408037         0.244426
 O         0.872794         3.743196         0.219235
 C         0.997627         3.068538         1.534783
 C        -0.441871         2.371358         1.684593
 H         0.858853         0.763923        -0.415193
 H        -2.349131         0.094493        -0.000222
 H        -2.748367         1.216501         1.341266
 H        -1.318099         2.098405        -1.271459
 H        -2.277622         3.810736         1.170652
 H        -0.653764         4.747485        -0.782178
 H        -0.473144         5.285654         0.903043
 H         1.964573         2.462120         1.287684
 H         1.145935         3.791989         2.348707
 H        -0.659653         2.061786         2.731006
