19
Iteration:  2231
 O         0.256834         0.266012         0.167373
 C        -0.665007         1.234200         0.664504
 C        -2.122609         0.869250         0.596632
 C        -1.541177         2.069927        -0.213977
 C        -1.310998         3.242479         0.654998
 C        -0.378916         4.412079         0.282906
 O         0.923197         3.874715         0.330774
 C         1.007683         3.047313         1.469631
 C        -0.348494         2.382974         1.652968
 H        -0.017269        -0.543396         0.490954
 H        -2.443576         0.118468        -0.177958
 H        -2.745536         0.918464         1.484121
 H        -1.763834         1.936036        -1.294657
 H        -2.138588         3.638129         1.100289
 H        -0.685131         4.774810        -0.700161
 H        -0.421006         5.218228         0.966045
 H         1.832509         2.426344         1.285163
 H         1.182876         3.674067         2.377546
 H        -0.750306         2.263458         2.691897
