19
Iteration:  2933charge 0 multiplicity 1
 O         0.382748         0.403932         0.371935
 C        -0.728536         1.201416         0.658178
 C        -2.166849         0.953705         0.508704
 C        -1.610651         2.064521        -0.274788
 C        -1.298771         3.250950         0.710168
 C        -0.370946         4.345774         0.218876
 O         0.943305         3.930673         0.409546
 C         0.974917         2.868574         1.472054
 C        -0.367868         2.334877         1.541626
 H         0.285060        -0.245953        -0.434485
 H        -2.486205         0.059378        -0.098296
 H        -2.748733         0.909771         1.485567
 H        -1.644257         2.149950        -1.343496
 H        -2.205981         3.688832         1.326892
 H        -0.740224         4.533864        -0.889743
 H        -0.593134         5.356478         0.705007
 H         1.691128         2.180276         1.115028
 H         1.179615         3.402290         2.484006
 H        -0.512323         2.153115         2.626564
