19
Iteration:   111charge 0 multiplicity 1
 O         0.156081         0.240176         0.228274
 C        -0.669717         1.229859         0.708610
 C        -2.132876         0.816982         0.496882
 C        -1.491349         2.016146        -0.195357
 C        -1.328498         3.205158         0.757388
 C        -0.410984         4.458183         0.346943
 O         0.878117         3.886452         0.215990
 C         1.083062         3.177407         1.360996
 C        -0.285696         2.419532         1.685089
 H        -0.060453        -0.709360         0.665155
 H        -2.114229        -0.077382        -0.150156
 H        -2.870431         0.814771         1.314935
 H        -1.588258         1.929315        -1.310756
 H        -2.264852         3.460510         1.310896
 H        -0.651018         4.877002        -0.637485
 H        -0.352361         5.175258         1.166679
 H         1.750243         2.337875         1.098527
 H         1.466497         3.698452         2.238874
 H        -0.421307         2.366911         2.751656
