19
Iteration:  2043
 O         0.285167         0.238524         0.240938
 C        -0.686986         1.146534         0.655743
 C        -2.232107         1.006912         0.543406
 C        -1.452786         2.087853        -0.249239
 C        -1.330424         3.244825         0.785854
 C        -0.425480         4.364886         0.150833
 O         0.890900         3.955900         0.414346
 C         1.010032         3.026721         1.424410
 C        -0.276523         2.350726         1.604405
 H         0.112320        -0.577396         0.577470
 H        -2.598970        -0.004007         0.265282
 H        -2.837004         1.220077         1.412314
 H        -1.455603         2.142107        -1.335867
 H        -2.215792         3.508029         1.382146
 H        -0.472661         4.497722        -0.942409
 H        -0.540105         5.377424         0.675714
 H         1.640115         2.241170         0.987246
 H         1.410561         3.523008         2.330937
 H        -0.515664         1.998808         2.666993
