19
Iteration:  4511charge 0 multiplicity 1
 O         0.179118         0.129164         0.286080
 C        -0.688442         1.138597         0.647509
 C        -2.202845         0.908812         0.510626
 C        -1.472681         2.043231        -0.290199
 C        -1.278653         3.200705         0.637948
 C        -0.372513         4.270603         0.004420
 O         0.852066         4.287752         0.831288
 C         1.056292         3.004379         1.439647
 C        -0.289898         2.330711         1.557975
 H         0.244990        -0.055486        -0.644530
 H        -2.701864         0.050716        -0.063666
 H        -2.893675         1.347279         1.186820
 H        -1.284918         2.153144        -1.402039
 H        -2.144056         3.670273         1.118096
 H        -0.073368         4.040689        -0.966345
 H        -0.683141         5.325288         0.220837
 H         1.820942         2.435988         0.904649
 H         1.427142         3.181639         2.517917
 H        -0.619289         2.194926         2.668895
