19
Iteration:  2624charge 0 multiplicity 1
 O         0.326665         0.274052         0.202697
 C        -0.674121         1.237781         0.656906
 C        -2.143630         0.946489         0.628231
 C        -1.518487         2.086362        -0.226730
 C        -1.320330         3.272298         0.741803
 C        -0.372615         4.352693         0.226832
 O         0.926109         3.743220         0.223905
 C         0.868354         3.080070         1.507121
 C        -0.356395         2.306951         1.739109
 H         0.713852         0.632650        -0.607641
 H        -2.507488         0.022727         0.149901
 H        -2.827133         1.281881         1.371926
 H        -1.312776         2.215525        -1.312467
 H        -2.146906         3.562841         1.281575
 H        -0.683623         4.596078        -0.851602
 H        -0.513255         5.282034         0.829043
 H         1.936013         2.515370         1.478153
 H         0.703684         3.885370         2.218375
 H        -0.587678         2.098779         2.828215
