19
Iteration:  3190
 O         0.312893         0.286122         0.251963
 C        -0.679208         1.251681         0.613489
 C        -2.061009         0.878441         0.553892
 C        -1.495314         2.063980        -0.318926
 C        -1.316363         3.323213         0.545815
 C        -0.365192         4.446488         0.336321
 O         0.940262         3.920319         0.408644
 C         0.894573         2.852825         1.509266
 C        -0.473207         2.310408         1.592674
 H         0.636334        -0.066617         1.067944
 H        -2.300658        -0.029763         0.025439
 H        -2.721801         1.176791         1.375786
 H        -1.615333         2.103774        -1.381001
 H        -2.283352         3.731669         1.099529
 H        -0.451552         4.963074        -0.577468
 H        -0.623008         5.179787         1.183977
 H         1.686768         2.170575         1.097519
 H         1.110960         3.361930         2.443676
 H        -0.925974         2.353521         2.587557
