19
Iteration:  4848charge 0 multiplicity 1
 O         0.267152         0.269509         0.204093
 C        -0.741384         1.107644         0.639824
 C        -2.124109         0.892668         0.510757
 C        -1.508838         2.011972        -0.265088
 C        -1.328815         3.218358         0.671206
 C        -0.378323         4.369559         0.094228
 O         0.980010         4.155920         0.606053
 C         1.057108         2.989550         1.477295
 C        -0.434140         2.316473         1.605452
 H         0.364562        -0.346339         0.935776
 H        -2.342299         0.110233        -0.198528
 H        -3.082459         1.162081         1.194302
 H        -1.751572         2.059700        -1.300426
 H        -2.203556         3.566196         1.201095
 H        -0.430435         4.452101        -0.959791
 H        -0.780256         5.405669         0.400367
 H         1.846703         2.217109         1.258687
 H         1.182144         3.374604         2.495948
 H        -0.638799         2.098536         2.699833
