19
Iteration:  2969charge 0 multiplicity 1
 O         0.307908         0.276131         0.146216
 C        -0.637568         1.190799         0.629666
 C        -2.101815         0.909895         0.511228
 C        -1.534213         2.096376        -0.247233
 C        -1.384433         3.298588         0.711799
 C        -0.365126         4.385523         0.285576
 O         0.934955         3.826313         0.320122
 C         0.915378         3.006632         1.562188
 C        -0.417743         2.443135         1.627223
 H         0.342161        -0.396159         0.959039
 H        -2.257427        -0.017778        -0.042390
 H        -2.717726         0.949820         1.465546
 H        -1.492152         1.947777        -1.338703
 H        -2.291884         3.684310         1.088460
 H        -0.494333         4.743267        -0.757116
 H        -0.458278         5.256531         0.994353
 H         1.763318         2.111441         1.536101
 H         1.248171         3.657812         2.440928
 H        -0.610985         2.228668         2.706238
