19
Iteration:  4539
 O         0.211461         0.037102         0.357993
 C        -0.666912         1.128515         0.581115
 C        -2.075563         0.910108         0.601892
 C        -1.600897         2.044148        -0.354161
 C        -1.297919         3.270188         0.550687
 C        -0.348708         4.343841         0.144391
 O         0.933135         4.272125         0.822250
 C         0.969105         2.986594         1.421931
 C        -0.393259         2.349502         1.446014
 H         0.840878         0.146757        -0.430355
 H        -2.657285         0.136957         0.136614
 H        -2.741207         1.308452         1.447384
 H        -1.677517         1.971420        -1.412968
 H        -2.228139         3.725795         1.056343
 H        -0.084013         4.372790        -0.992945
 H        -0.646981         5.316626         0.486960
 H         1.778169         2.350746         0.854989
 H         1.455616         2.998251         2.382558
 H        -0.775882         2.107183         2.396957
