19
Iteration:   777
 O         0.296429         0.501869         0.067697
 C        -0.729992         1.182669         0.793792
 C        -2.157205         0.776714         0.512797
 C        -1.678980         2.054356        -0.093927
 C        -1.315764         3.295842         0.787445
 C        -0.369814         4.292043         0.143030
 O         0.992143         3.774445         0.283030
 C         1.044187         3.047458         1.480883
 C        -0.366076         2.424232         1.703500
 H         0.349974        -0.424569         0.533102
 H        -2.287267        -0.077048        -0.175353
 H        -3.026498         0.945689         1.187766
 H        -1.569680         2.151335        -1.129262
 H        -2.146111         3.732010         1.301285
 H        -0.388956         4.581377        -0.896289
 H        -0.482542         5.213640         0.802614
 H         1.861126         2.211235         1.274697
 H         1.243457         3.697384         2.353850
 H        -0.674756         2.444726         2.691044
