19
Iteration:  2095charge 0 multiplicity 1
 O         0.337169         0.313608         0.249497
 C        -0.654567         1.234916         0.602965
 C        -2.152795         0.849247         0.552897
 C        -1.692892         2.081231        -0.235212
 C        -1.383086         3.319181         0.731232
 C        -0.356401         4.456181         0.300460
 O         0.920141         3.838731         0.276362
 C         1.064967         2.930049         1.464670
 C        -0.341651         2.361469         1.608562
 H         0.401495        -0.216410         1.072050
 H        -2.408109        -0.085270         0.008337
 H        -2.914365         0.970320         1.300137
 H        -1.661924         1.950157        -1.301102
 H        -2.333322         3.815544         1.152174
 H        -0.544323         4.877657        -0.707822
 H        -0.304240         5.348627         0.914043
 H         2.043832         2.192991         1.394514
 H         1.181520         3.635674         2.279687
 H        -0.767389         2.060218         2.649517
