19
Iteration:  2938charge 0 multiplicity 1
 O         0.393824         0.410620         0.329875
 C        -0.702351         1.173662         0.669906
 C        -2.167077         0.961441         0.547214
 C        -1.572391         2.104929        -0.262097
 C        -1.288044         3.235984         0.710585
 C        -0.383622         4.383302         0.186128
 O         0.929008         3.916835         0.406621
 C         0.922077         2.848212         1.488133
 C        -0.396301         2.343616         1.547866
 H         0.169717        -0.288518        -0.227460
 H        -2.292257         0.113453        -0.096681
 H        -2.758135         1.060733         1.439805
 H        -1.714399         2.049436        -1.364350
 H        -2.106430         3.590583         1.239409
 H        -0.594415         4.533842        -0.825971
 H        -0.652738         5.245679         0.797901
 H         1.771744         2.119064         1.131206
 H         1.301483         3.343973         2.356905
 H        -0.622042         2.159916         2.609752
