19
Iteration:  1640charge 0 multiplicity 1
 O         0.280180         0.213633         0.152088
 C        -0.651074         1.205881         0.539994
 C        -2.145451         1.061820         0.618964
 C        -1.588794         2.140293        -0.245052
 C        -1.333387         3.304556         0.804347
 C        -0.466116         4.259222         0.131745
 O         0.929850         3.915595         0.417343
 C         1.053790         3.012193         1.564159
 C        -0.327843         2.281431         1.553380
 H         0.557743        -0.066002         0.965734
 H        -2.406746         0.210389        -0.042068
 H        -2.599979         1.083500         1.662269
 H        -1.960381         2.296100        -1.252774
 H        -2.162692         3.584943         1.421545
 H        -0.514510         4.261104        -1.013946
 H        -0.616177         5.294058         0.454025
 H         1.815749         2.285424         1.517121
 H         1.241320         3.533633         2.451074
 H        -0.596424         2.038512         2.598493
