19
Iteration:  4310
 O         0.260963         0.213214         0.298252
 C        -0.767148         1.091975         0.672937
 C        -2.185442         0.813370         0.610445
 C        -1.424941         1.945246        -0.371205
 C        -1.216225         3.346513         0.472615
 C        -0.275599         4.419201         0.115378
 O         0.851961         4.258322         1.090974
 C         0.982868         2.875531         1.163470
 C        -0.424048         2.379843         1.493436
 H        -0.065519        -0.755187         0.525284
 H        -2.733710         0.002237         0.001535
 H        -2.904699         1.273137         1.438383
 H        -1.592252         1.899867        -1.468036
 H        -2.239902         3.760504         0.778358
 H         0.109382         4.414007        -0.950563
 H        -0.662295         5.537239         0.121126
 H         1.512230         2.407322         0.328657
 H         1.563973         2.744764         2.022800
 H        -0.455560         2.495763         2.608543
