19
Iteration:  2506charge 0 multiplicity 1
 O         0.247779         0.203405         0.225203
 C        -0.608388         1.213206         0.676132
 C        -2.114874         0.890038         0.511054
 C        -1.573262         2.121935        -0.183358
 C        -1.353475         3.349999         0.771418
 C        -0.377370         4.369961         0.228249
 O         0.898338         3.789358         0.169892
 C         0.978091         3.105217         1.555609
 C        -0.390606         2.295028         1.717151
 H         0.977574         0.537472        -0.338849
 H        -2.384757        -0.072297         0.012457
 H        -2.822286         0.941517         1.390573
 H        -1.333190         2.088742        -1.270518
 H        -2.310368         3.808913         1.359868
 H        -0.589630         4.805351        -0.805686
 H        -0.334322         5.233331         0.903560
 H         1.745115         2.391346         1.474806
 H         1.198919         3.886817         2.343922
 H        -0.600960         2.113483         2.779934
