19
Iteration:  4751charge 0 multiplicity 1
 O         0.325490         0.289111         0.299914
 C        -0.675430         1.182930         0.582703
 C        -2.128403         0.879179         0.653808
 C        -1.594002         2.000938        -0.265999
 C        -1.288739         3.227210         0.609785
 C        -0.247629         4.293727        -0.032215
 O         0.893851         4.211329         0.855587
 C         0.947484         2.884985         1.325587
 C        -0.436217         2.362334         1.568732
 H         0.164091        -0.149247        -0.540913
 H        -2.549792         0.055614         0.102736
 H        -2.689893         1.298675         1.580224
 H        -1.802862         2.051721        -1.307832
 H        -2.246283         3.694058         1.084346
 H        -0.049013         4.318558        -1.153350
 H        -0.738152         5.259659         0.292565
 H         1.554587         2.144600         0.802725
 H         1.412700         2.804917         2.324166
 H        -0.873543         2.323417         2.531466
