19
Iteration:  4724
 O         0.272585         0.204926         0.359926
 C        -0.727266         1.124021         0.638716
 C        -2.217181         0.922459         0.475301
 C        -1.613414         2.046980        -0.204612
 C        -1.338448         3.274889         0.657547
 C        -0.251189         4.172830        -0.002206
 O         0.836318         4.322332         0.911544
 C         1.087433         2.983640         1.232669
 C        -0.331891         2.320217         1.556225
 H         0.238005        -0.100429        -0.534676
 H        -2.395789         0.018569        -0.176348
 H        -2.644475         0.924873         1.440369
 H        -1.660899         2.023754        -1.334074
 H        -2.164145         3.761440         1.063668
 H         0.140275         3.748282        -0.924115
 H        -0.664063         5.173609        -0.027402
 H         1.707007         2.424785         0.546830
 H         1.628130         2.978464         2.197116
 H        -0.618362         2.259275         2.681626
