19
Iteration:   387charge 0 multiplicity 1
 O         0.308191         0.256750         0.248435
 C        -0.592767         1.217267         0.662586
 C        -2.121273         0.978210         0.528801
 C        -1.462125         2.178096        -0.183571
 C        -1.339600         3.285411         0.725448
 C        -0.521872         4.413558         0.334490
 O         0.798251         3.780551         0.253986
 C         1.031691         2.958819         1.330440
 C        -0.322146         2.364496         1.700499
 H         0.053094        -0.499395         0.693073
 H        -2.535523         0.184937        -0.178279
 H        -2.689789         1.253439         1.470293
 H        -1.324453         2.242485        -1.271010
 H        -2.306283         3.459589         1.269867
 H        -0.714470         4.692464        -0.749224
 H        -0.573546         5.269976         1.083401
 H         1.737882         2.108327         1.008098
 H         1.632219         3.498977         2.180440
 H        -0.435368         2.215489         2.755617
