19
Iteration:  3345
 O         0.255723         0.221555         0.205797
 C        -0.651371         1.286418         0.688242
 C        -2.065341         0.866005         0.439569
 C        -1.496660         2.117667        -0.242446
 C        -1.338076         3.260000         0.815618
 C        -0.392306         4.343587         0.155928
 O         0.955244         3.797089         0.313505
 C         0.870021         3.066466         1.556501
 C        -0.461811         2.350620         1.716425
 H         1.180621         0.722527         0.206969
 H        -2.191076         0.092307        -0.323996
 H        -2.818350         1.123332         1.186323
 H        -1.268028         2.402947        -1.274061
 H        -2.341307         3.608861         1.388640
 H        -0.594049         4.540841        -0.863341
 H        -0.538135         5.377884         0.561271
 H         1.752025         2.394111         1.622533
 H         1.211794         3.712880         2.387100
 H        -0.736884         1.999045         2.731774
