19
Iteration:  3712
 O         0.313096         0.261532         0.253090
 C        -0.725955         1.186276         0.616045
 C        -2.220348         0.860135         0.573731
 C        -1.644599         2.100517        -0.255092
 C        -1.255217         3.265237         0.614901
 C        -0.184233         4.239121        -0.036674
 O         0.790998         4.284887         0.931338
 C         1.048199         2.888626         1.318727
 C        -0.365892         2.315858         1.557480
 H         0.051455        -0.668953         0.658364
 H        -2.484739        -0.036803        -0.050235
 H        -2.942136         1.136895         1.389856
 H        -1.748337         2.176055        -1.365342
 H        -2.179969         3.707207         1.074504
 H         0.193391         3.861408        -1.002754
 H        -0.622415         5.153461        -0.255333
 H         1.668447         2.379696         0.569772
 H         1.664795         2.824273         2.243322
 H        -0.481709         2.247326         2.629730
