19
Iteration:  4418charge 0 multiplicity 1
 O         0.286210         0.246694         0.169768
 C        -0.740921         1.143740         0.637233
 C        -2.197927         0.926726         0.634705
 C        -1.561307         2.006368        -0.305210
 C        -1.224206         3.226843         0.493456
 C        -0.223656         4.325322        -0.001178
 O         0.806286         4.264785         0.966723
 C         1.002379         2.906926         1.417465
 C        -0.357855         2.324998         1.538594
 H        -0.046904        -0.664531         0.422309
 H        -2.431008         0.015794         0.058386
 H        -2.878871         1.081821         1.578997
 H        -1.663034         2.125829        -1.387056
 H        -2.196558         3.569613         1.010332
 H         0.190818         4.025114        -0.937128
 H        -0.665030         5.302032         0.033649
 H         1.636605         2.367167         0.675234
 H         1.518886         3.111790         2.350334
 H        -0.692895         2.339151         2.538575
