19
Iteration:  2371
 O         0.354297         0.239987         0.345212
 C        -0.610746         1.248287         0.595079
 C        -2.137630         0.993679         0.505309
 C        -1.610415         2.114735        -0.191724
 C        -1.321646         3.311537         0.870242
 C        -0.411178         4.357196         0.178976
 O         0.881024         3.826035         0.311717
 C         1.024540         3.000608         1.508808
 C        -0.388593         2.310365         1.528210
 H         0.214052        -0.209474        -0.554582
 H        -2.438275         0.104162        -0.075850
 H        -2.653609         1.079816         1.371088
 H        -1.767450         2.256782        -1.249335
 H        -2.324151         3.572472         1.484644
 H        -0.683906         4.419914        -0.865652
 H        -0.497648         5.427553         0.523949
 H         1.875796         2.314548         1.415122
 H         1.023470         3.615144         2.414329
 H        -0.430056         2.097861         2.582805
