19
Iteration:  4925
 O         0.353361         0.241718         0.346781
 C        -0.611810         1.169354         0.615293
 C        -2.113938         0.944383         0.263924
 C        -1.469169         2.140331        -0.242990
 C        -1.358882         3.272094         0.782489
 C        -0.401583         4.388556         0.274815
 O         0.901106         3.774253         0.234602
 C         0.954188         3.141281         1.570134
 C        -0.429691         2.347689         1.743838
 H         0.105185        -0.686948         0.455150
 H        -2.268120         0.038610        -0.425947
 H        -2.903324         0.964539         1.124285
 H        -1.693870         2.461624        -1.267101
 H        -2.232698         3.605642         1.311486
 H        -0.771096         4.608766        -0.702237
 H        -0.463276         5.277566         0.917980
 H         1.741502         2.348764         1.503807
 H         0.964261         3.909196         2.358229
 H        -0.759581         2.143793         2.819888
