19
Iteration:  4878
 O         0.350885         0.250249         0.176175
 C        -0.726570         1.155616         0.606533
 C        -2.147411         0.908952         0.631350
 C        -1.532516         1.968113        -0.346726
 C        -1.294979         3.220576         0.529104
 C        -0.353614         4.417672         0.280441
 O         0.965828         4.025294         0.529073
 C         0.994319         2.975632         1.485446
 C        -0.509359         2.410690         1.609054
 H         0.698680         0.004364         1.121085
 H        -2.484026         0.077216         0.105159
 H        -2.899968         1.298234         1.308727
 H        -1.534196         1.878306        -1.423256
 H        -2.209933         3.599662         0.952687
 H        -0.411243         4.888999        -0.744438
 H        -0.669731         5.116984         1.055659
 H         1.567941         2.126889         1.112750
 H         1.213548         3.410806         2.506870
 H        -0.880884         2.277951         2.663918
