19
Iteration:  2060charge 0 multiplicity 1
 O         0.268763         0.286050         0.162994
 C        -0.681844         1.171263         0.756296
 C        -2.136780         0.948863         0.558148
 C        -1.499440         2.037254        -0.144531
 C        -1.299819         3.331392         0.688229
 C        -0.455064         4.381019         0.176282
 O         0.937047         3.995243         0.359095
 C         1.052024         2.887837         1.406323
 C        -0.388001         2.323219         1.727420
 H         0.078494        -0.560630         0.505007
 H        -2.465195         0.230040        -0.217990
 H        -2.925479         1.276645         1.248245
 H        -1.327667         2.068435        -1.222761
 H        -2.405590         3.529907         0.907207
 H        -0.666675         4.423884        -0.911761
 H        -0.661298         5.315078         0.682436
 H         1.920860         2.223457         1.014536
 H         1.383104         3.446442         2.320962
 H        -0.700890         2.353733         2.796342
