19
Iteration:  2687charge 0 multiplicity 1
 O         0.358620         0.305440         0.283874
 C        -0.670481         1.234039         0.637510
 C        -2.186188         0.888557         0.603903
 C        -1.569218         2.136895        -0.154569
 C        -1.335158         3.249087         0.742422
 C        -0.452106         4.325431         0.174793
 O         0.940727         3.847097         0.293864
 C         0.987851         2.946194         1.409798
 C        -0.392974         2.357762         1.616744
 H         1.079409         0.875444         0.436838
 H        -2.473908         0.266402        -0.243105
 H        -2.891959         1.022343         1.368726
 H        -1.753152         2.206037        -1.247894
 H        -2.221912         3.591152         1.461105
 H        -0.530956         4.456922        -0.877400
 H        -0.412633         5.281289         0.660286
 H         1.805143         2.239852         1.322918
 H         1.314014         3.457150         2.325930
 H        -0.674524         2.273547         2.670738
