19
Iteration:  1685
 O         0.261355         0.339082         0.180707
 C        -0.684601         1.126893         0.728114
 C        -2.205029         0.809423         0.577073
 C        -1.504966         2.084230        -0.165562
 C        -1.307774         3.280637         0.664645
 C        -0.361279         4.477781         0.338227
 O         0.936523         3.829607         0.303294
 C         1.023426         3.009441         1.428545
 C        -0.383359         2.404999         1.576712
 H         0.121855        -0.540835         0.295976
 H        -2.573870         0.211763        -0.206157
 H        -2.935192         0.880013         1.400992
 H        -1.400657         1.939597        -1.290998
 H        -2.165964         3.704955         1.074480
 H        -0.581917         4.844452        -0.663958
 H        -0.313315         5.282493         1.055295
 H         1.827165         2.347153         1.387924
 H         1.224741         3.608665         2.268841
 H        -0.672643         2.474872         2.647645
