19
Iteration:   245
 O         0.251951         0.287016         0.085387
 C        -0.566247         1.278203         0.542557
 C        -2.076565         0.938877         0.646610
 C        -1.753890         2.103817        -0.190156
 C        -1.380668         3.214731         0.853987
 C        -0.422086         4.303294         0.113404
 O         0.987242         3.828087         0.338453
 C         1.031133         3.115972         1.593943
 C        -0.352931         2.345076         1.585136
 H         0.389463        -0.385138         0.820692
 H        -2.367955        -0.017394         0.219732
 H        -2.522883         1.145296         1.694730
 H        -1.777291         2.183895        -1.232263
 H        -2.043795         3.707569         1.513250
 H        -0.564687         4.301189        -1.031641
 H        -0.538002         5.288830         0.534098
 H         1.847874         2.330293         1.407979
 H         1.204111         3.761242         2.416566
 H        -0.588548         2.018127         2.608955
