19
Iteration:   828
 O         0.296674         0.246800         0.133735
 C        -0.604945         1.305692         0.512792
 C        -2.132816         0.949821         0.705185
 C        -1.689379         2.027024        -0.231681
 C        -1.314018         3.293519         0.734728
 C        -0.385213         4.338331         0.253856
 O         0.944311         3.836128         0.330451
 C         0.965305         3.033240         1.513426
 C        -0.365963         2.368790         1.561635
 H         0.618880        -0.096857         1.043585
 H        -2.217532        -0.017122         0.346269
 H        -2.550143         1.062109         1.674038
 H        -1.937579         2.190790        -1.292926
 H        -2.240552         3.599761         1.280157
 H        -0.472822         4.665943        -0.825195
 H        -0.435629         5.274386         0.800237
 H         1.697537         2.341366         1.363024
 H         1.304633         3.636755         2.412870
 H        -0.688136         1.991482         2.648086
