19
Iteration:   392charge 0 multiplicity 1
 O         0.337827         0.248783         0.218494
 C        -0.614161         1.199851         0.682447
 C        -2.107158         0.997895         0.540914
 C        -1.476329         2.159769        -0.213358
 C        -1.322831         3.281699         0.722031
 C        -0.539536         4.456096         0.336621
 O         0.814006         3.796978         0.235948
 C         1.013029         2.924205         1.364538
 C        -0.316240         2.367355         1.726149
 H         0.058608        -0.655351         0.647136
 H        -2.607309         0.222903         0.031399
 H        -2.543237         1.303594         1.455388
 H        -1.476953         2.183080        -1.307842
 H        -2.287366         3.537607         1.139660
 H        -0.758594         4.705813        -0.688990
 H        -0.511199         5.349536         0.943558
 H         1.678511         2.155531         1.089780
 H         1.517715         3.430042         2.163734
 H        -0.528269         2.166326         2.827356
