19
Iteration:  3780
 O         0.118561         0.035960         0.258595
 C        -0.669652         1.123375         0.586716
 C        -2.164289         0.905543         0.525993
 C        -1.585208         2.086567        -0.320682
 C        -1.299086         3.223280         0.614446
 C        -0.279237         4.228415         0.070521
 O         0.904477         4.336446         0.875992
 C         1.030889         2.992736         1.436670
 C        -0.328027         2.392852         1.525943
 H         0.955536         0.353398         0.052638
 H        -2.422551        -0.053468        -0.021197
 H        -2.866156         1.090995         1.484040
 H        -1.687353         2.311344        -1.394803
 H        -2.148954         3.890529         1.087014
 H        -0.051912         3.956004        -0.958415
 H        -0.648273         5.229499        -0.059418
 H         1.822227         2.323058         0.909723
 H         1.475226         3.187290         2.441909
 H        -0.659102         2.098263         2.539927
