19
Iteration:  3846
 O         0.193876         0.163593         0.338338
 C        -0.705388         1.177751         0.583474
 C        -2.175194         0.892711         0.607644
 C        -1.541972         1.957475        -0.321734
 C        -1.258156         3.246803         0.497827
 C        -0.198004         4.320476         0.076570
 O         0.857979         4.338267         1.035272
 C         0.984273         2.911378         1.311694
 C        -0.371949         2.326961         1.483983
 H         0.017031        -0.338550        -0.562350
 H        -2.607682        -0.029417         0.145100
 H        -2.779060         1.246761         1.585546
 H        -1.428096         1.992232        -1.389785
 H        -2.229310         3.739900         0.783572
 H         0.365954         4.185871        -0.943647
 H        -0.737683         5.278199        -0.016591
 H         1.354815         2.529189         0.300771
 H         1.606180         2.736203         2.200426
 H        -0.587164         2.412203         2.569261
