19
Iteration:  4265
 O         0.243455         0.089504         0.492899
 C        -0.695773         1.120699         0.572952
 C        -2.108596         0.975362         0.325791
 C        -1.553503         2.178771        -0.307177
 C        -1.316477         3.218996         0.740198
 C        -0.319746         4.255523         0.050216
 O         0.819217         4.348418         0.859645
 C         1.099032         2.922209         1.338590
 C        -0.328117         2.294597         1.497655
 H        -0.240636        -0.719752         0.047182
 H        -2.466023         0.068536        -0.279962
 H        -2.862509         1.156835         1.220157
 H        -1.926363         2.414506        -1.316261
 H        -2.142802         3.635983         1.399097
 H        -0.208876         3.914122        -0.970408
 H        -0.647664         5.313276        -0.146813
 H         1.686280         2.374359         0.606932
 H         1.727470         3.033407         2.196503
 H        -0.630492         1.996152         2.503276
