19
Iteration:   766
 O         0.205297         0.502525         0.122461
 C        -0.692958         1.223843         0.746323
 C        -2.080264         0.810811         0.557918
 C        -1.612721         2.075707        -0.147883
 C        -1.379919         3.306342         0.736793
 C        -0.367469         4.322173         0.213162
 O         0.983149         3.738950         0.244778
 C         1.043169         3.021747         1.497169
 C        -0.372933         2.405862         1.698735
 H         0.215556        -0.543680         0.277106
 H        -2.079468         0.081760        -0.277719
 H        -2.754445         0.525335         1.419959
 H        -1.614305         1.979190        -1.190115
 H        -2.186020         3.824219         1.216991
 H        -0.718890         4.485670        -0.801222
 H        -0.379413         5.318153         0.756458
 H         2.008996         2.285023         1.568170
 H         1.252253         3.735935         2.322931
 H        -0.593469         2.226956         2.690314
