19
Iteration:  2757
 O         0.306121         0.086812         0.317743
 C        -0.614148         1.165587         0.578410
 C        -2.172835         0.938965         0.616828
 C        -1.565012         2.076002        -0.259936
 C        -1.394588         3.285628         0.767847
 C        -0.417506         4.428830         0.247611
 O         0.960073         3.858967         0.286530
 C         0.980178         3.106390         1.489074
 C        -0.343294         2.395478         1.611075
 H         0.691003         0.357534        -0.604033
 H        -2.524405         0.217527        -0.127442
 H        -2.927896         1.144590         1.452088
 H        -1.796055         2.060913        -1.333905
 H        -2.349823         3.572734         1.131100
 H        -0.550371         4.848596        -0.834506
 H        -0.508844         5.195335         1.009016
 H         2.048455         2.567969         1.525323
 H         1.131988         3.797652         2.295905
 H        -0.533434         2.103984         2.701411
