19
Iteration:  3315charge 0 multiplicity 1
 O         0.438270         0.368520         0.394470
 C        -0.694354         1.225017         0.654139
 C        -2.127666         0.869890         0.474825
 C        -1.630488         2.090160        -0.275768
 C        -1.361590         3.270282         0.641877
 C        -0.372798         4.381781         0.242877
 O         0.929956         3.803467         0.396972
 C         0.942212         2.897745         1.452588
 C        -0.456246         2.405322         1.638991
 H         0.992086         0.846935        -0.265626
 H        -2.322736         0.139425        -0.309175
 H        -2.899343         1.080785         1.244930
 H        -1.816161         2.333281        -1.326337
 H        -2.274474         3.572410         1.274127
 H        -0.421158         4.765010        -0.855035
 H        -0.414074         5.192254         0.981574
 H         1.722586         1.991604         1.136057
 H         1.401604         3.321178         2.364804
 H        -0.837195         2.091928         2.636615
