19
Iteration:  3313
 O         0.447658         0.382276         0.401720
 C        -0.694355         1.216704         0.638682
 C        -2.140363         0.874163         0.487299
 C        -1.656821         2.088471        -0.287103
 C        -1.355300         3.253920         0.625994
 C        -0.369681         4.392033         0.262532
 O         0.953246         3.815463         0.382010
 C         0.941192         2.905963         1.459963
 C        -0.458590         2.399940         1.641251
 H         0.945788         0.759325        -0.254652
 H        -2.339293         0.077450        -0.259964
 H        -2.929274         1.042508         1.237115
 H        -1.732646         2.314639        -1.371194
 H        -2.308025         3.537240         1.334990
 H        -0.448053         4.718801        -0.775132
 H        -0.332936         5.182549         1.011962
 H         1.661168         1.970655         1.088645
 H         1.359932         3.356750         2.387406
 H        -0.871152         2.073419         2.616034
