19
Iteration:  3457
 O         0.250259         0.177878         0.354883
 C        -0.656061         1.170880         0.677829
 C        -2.179382         0.838552         0.371887
 C        -1.600644         2.114058        -0.195348
 C        -1.322811         3.284849         0.733490
 C        -0.379538         4.320399         0.009810
 O         0.926365         4.117417         0.613987
 C         1.014426         2.929492         1.427797
 C        -0.359675         2.343071         1.613546
 H         0.992033         0.670809         0.138448
 H        -2.405508         0.040192        -0.348800
 H        -2.751338         1.012293         1.244994
 H        -1.712919         2.383131        -1.253752
 H        -2.195508         3.795363         1.345547
 H        -0.305307         4.175002        -1.076882
 H        -0.658358         5.371851         0.233323
 H         1.684477         2.214682         1.024795
 H         1.594302         3.088779         2.353631
 H        -0.658086         2.280492         2.674492
