19
Iteration:  3074charge 0 multiplicity 1
 O         0.435535         0.441741         0.324941
 C        -0.724360         1.092703         0.645994
 C        -2.298927         0.924182         0.551746
 C        -1.532242         2.069882        -0.273696
 C        -1.302642         3.260756         0.584199
 C        -0.347657         4.414591         0.295107
 O         0.991655         3.862988         0.377613
 C         0.946414         3.003700         1.491898
 C        -0.462122         2.258665         1.614877
 H         0.470618         0.097219        -0.545304
 H        -2.637381         0.081679        -0.062103
 H        -2.877472         0.922091         1.512747
 H        -1.592993         1.995275        -1.345037
 H        -2.279480         3.655103         1.021009
 H        -0.358874         5.048448        -0.693906
 H        -0.400220         5.088727         1.175750
 H         1.670836         2.213032         1.136828
 H         1.256580         3.500672         2.489534
 H        -0.810916         2.004416         2.642980
