19
Iteration:  2747charge 0 multiplicity 1
 O         0.212207         0.070748         0.258149
 C        -0.641526         1.189405         0.605803
 C        -2.065870         0.894535         0.616699
 C        -1.592511         2.100196        -0.240616
 C        -1.387187         3.255249         0.728694
 C        -0.342107         4.453397         0.257462
 O         0.904069         3.839575         0.253462
 C         1.014389         3.203130         1.512672
 C        -0.366073         2.338802         1.631500
 H         1.137881         0.324547        -0.156512
 H        -2.301697         0.012191        -0.004510
 H        -2.857919         1.162166         1.392038
 H        -1.706329         2.135257        -1.335343
 H        -2.225060         3.597171         1.241100
 H        -0.544841         4.944601        -0.759393
 H        -0.418063         5.247126         1.030627
 H         1.956523         2.401385         1.503161
 H         1.050121         3.893403         2.363533
 H        -0.773893         2.260969         2.680588
