19
Iteration:  1916charge 0 multiplicity 1
 O         0.358968         0.355883         0.240014
 C        -0.687324         1.215595         0.616865
 C        -2.121226         0.810952         0.536730
 C        -1.723887         2.133600        -0.194917
 C        -1.364730         3.320711         0.808968
 C        -0.301307         4.422718         0.300920
 O         0.959714         3.690485         0.192572
 C         0.997640         3.035264         1.483013
 C        -0.413881         2.424830         1.594144
 H         0.294542        -0.316456         0.946916
 H        -2.192478         0.029742        -0.238297
 H        -2.896118         0.615748         1.276608
 H        -1.792836         2.118292        -1.283700
 H        -2.113338         3.884696         1.307097
 H        -0.479103         4.817200        -0.687418
 H        -0.207720         5.237496         1.072370
 H         1.762400         2.338672         1.399124
 H         1.187418         3.608908         2.372720
 H        -0.672548         2.331600         2.644970
