19
Iteration:  1903
 O         0.330952         0.387742         0.197855
 C        -0.677221         1.263728         0.621102
 C        -2.160957         0.886307         0.559394
 C        -1.618024         2.082687        -0.182915
 C        -1.317722         3.309023         0.706748
 C        -0.340657         4.362772         0.256176
 O         0.935359         3.737481         0.195653
 C         1.000222         2.989262         1.554873
 C        -0.404190         2.366092         1.663985
 H         0.341566        -0.529005         0.692263
 H        -2.368997        -0.115176         0.068079
 H        -2.576849         1.127704         1.527963
 H        -1.824331         2.362324        -1.217188
 H        -2.224388         3.593466         1.186908
 H        -0.600578         4.910481        -0.646633
 H        -0.324761         5.091080         1.101505
 H         1.689501         2.297274         1.581720
 H         1.207834         3.828712         2.142842
 H        -0.743407         2.084214         2.592380
