19
Iteration:  4821charge 0 multiplicity 1
 O         0.281581         0.162717         0.246790
 C        -0.615815         1.195055         0.579068
 C        -2.125971         0.933447         0.414014
 C        -1.542626         2.080540        -0.197563
 C        -1.356946         3.270028         0.771078
 C        -0.426318         4.264055        -0.005500
 O         0.883266         4.114311         0.667182
 C         1.053863         3.004997         1.510353
 C        -0.367773         2.409073         1.581069
 H        -0.290521        -0.570676         0.424047
 H        -2.290361        -0.000236        -0.183360
 H        -2.660489         1.116793         1.231447
 H        -1.756109         2.288254        -1.288871
 H        -2.175920         3.706979         1.397275
 H        -0.334358         4.009493        -1.147638
 H        -0.710940         5.280687         0.054800
 H         1.871821         2.217248         1.321243
 H         1.429706         3.320913         2.620426
 H        -0.528713         2.095444         2.616876
