19
Iteration:  2644
 O         0.319097         0.288590         0.238660
 C        -0.618759         1.137631         0.680760
 C        -2.120363         0.918363         0.584197
 C        -1.558999         2.090478        -0.137765
 C        -1.386689         3.256469         0.735371
 C        -0.373123         4.383366         0.244271
 O         0.915243         3.717752         0.237587
 C         1.022172         3.124320         1.549279
 C        -0.436756         2.415259         1.569738
 H         0.623422         0.362308        -0.625646
 H        -2.332201         0.123551        -0.133172
 H        -2.819890         0.957594         1.375952
 H        -1.867167         2.066569        -1.226495
 H        -2.327281         3.840042         1.062065
 H        -0.528121         4.851898        -0.727618
 H        -0.415341         5.176332         1.030161
 H         1.845624         2.252399         1.442216
 H         1.155861         3.862543         2.354784
 H        -0.800344         2.258224         2.610286
