19
Iteration:  4742
 O         0.366995         0.221881         0.316244
 C        -0.701886         1.163890         0.592167
 C        -2.179572         0.843803         0.666607
 C        -1.582042         2.040629        -0.287566
 C        -1.278859         3.261380         0.644405
 C        -0.315122         4.320521        -0.008131
 O         0.883234         4.255031         0.848236
 C         0.965688         2.847228         1.377530
 C        -0.426368         2.367737         1.526174
 H         0.101562        -0.046817        -0.572358
 H        -2.472934         0.096247         0.001037
 H        -2.956825         1.277958         1.254699
 H        -1.721050         2.186615        -1.334830
 H        -2.154362         3.783674         1.176634
 H         0.070528         3.798967        -0.935949
 H        -0.571327         5.389966        -0.113519
 H         1.439709         2.315358         0.460498
 H         1.753355         2.920377         2.251280
 H        -0.662395         2.287643         2.566487
