19
Iteration:  1581charge 0 multiplicity 1
 O         0.290240         0.400300         0.110970
 C        -0.652384         1.260143         0.635539
 C        -2.085546         0.885557         0.666320
 C        -1.648456         2.044340        -0.215774
 C        -1.320019         3.262799         0.662986
 C        -0.318543         4.379712         0.220585
 O         0.929419         3.796169         0.343397
 C         0.963964         3.018115         1.528507
 C        -0.385786         2.337894         1.631297
 H        -0.050061        -0.544340         0.424556
 H        -2.421548         0.024182         0.061805
 H        -2.709630         0.906147         1.644785
 H        -1.704576         1.879136        -1.310088
 H        -2.097255         3.877387         1.229570
 H        -0.394135         4.866146        -0.782793
 H        -0.385387         5.191271         0.938941
 H         1.753746         2.215694         1.499496
 H         1.112146         3.732617         2.264008
 H        -0.642496         2.221667         2.688168
