19
Iteration:  1329charge 0 multiplicity 1
 O         0.326087         0.528036         0.146357
 C        -0.671007         1.273023         0.757496
 C        -2.089968         0.954155         0.519081
 C        -1.513961         2.128870        -0.169616
 C        -1.375870         3.273986         0.833558
 C        -0.450276         4.257014         0.218977
 O         0.908249         3.628377         0.158460
 C         0.988762         2.959611         1.497719
 C        -0.391367         2.405432         1.729185
 H         0.367310        -0.437704         0.478017
 H        -2.211878         0.127209        -0.222822
 H        -2.922924         1.046497         1.196738
 H        -1.254215         2.143026        -1.200013
 H        -2.280151         3.580827         1.273241
 H        -0.600810         4.605997        -0.769056
 H        -0.324705         5.164720         0.837492
 H         1.662232         2.123651         1.415852
 H         1.221735         3.711391         2.238374
 H        -0.750519         2.183091         2.722754
