19
Iteration:  4985
 O         0.465058         0.386289         0.495708
 C        -0.648798         1.193030         0.598935
 C        -2.077625         0.933461         0.441101
 C        -1.560043         2.096531        -0.267024
 C        -1.370635         3.315468         0.616028
 C        -0.389699         4.380846         0.396181
 O         0.894247         3.778914         0.323068
 C         0.894196         2.905612         1.408199
 C        -0.527104         2.332860         1.570192
 H         0.558502        -0.118430        -0.384961
 H        -2.352545         0.081317        -0.142761
 H        -2.764736         1.213958         1.203641
 H        -1.506181         2.170190        -1.330944
 H        -2.233316         3.815084         1.201168
 H        -0.488211         5.028880        -0.570037
 H        -0.354296         5.229624         1.194803
 H         1.667558         2.186756         1.185609
 H         1.260008         3.426745         2.283054
 H        -0.766923         2.198489         2.593954
