19
Iteration:  2166
 O         0.291136         0.365959         0.130577
 C        -0.670744         1.228801         0.749063
 C        -2.126218         0.829188         0.467081
 C        -1.593018         2.060544        -0.175935
 C        -1.378645         3.330264         0.853229
 C        -0.346644         4.289687         0.236843
 O         0.984774         3.857229         0.235077
 C         1.010181         2.998666         1.461240
 C        -0.448822         2.432363         1.706312
 H        -0.024068        -0.532396         0.486640
 H        -2.200417        -0.127728        -0.159316
 H        -2.906695         0.893444         1.261664
 H        -1.228916         2.163781        -1.241442
 H        -2.264702         3.634114         1.343424
 H        -0.523248         4.542100        -0.816687
 H        -0.413312         5.273376         0.756994
 H         1.775809         2.356052         1.317994
 H         1.165437         3.659736         2.321932
 H        -0.535300         2.310263         2.789071
