19
Iteration:  4412charge 0 multiplicity 1
 O         0.227463         0.217200         0.163392
 C        -0.705706         1.144567         0.675841
 C        -2.171054         0.880218         0.592445
 C        -1.528654         2.030286        -0.299805
 C        -1.230736         3.237298         0.553569
 C        -0.266705         4.304194        -0.010931
 O         0.826596         4.273887         0.959975
 C         1.007191         2.927092         1.419646
 C        -0.352815         2.350308         1.521767
 H         0.064924        -0.621950         0.497306
 H        -2.518650         0.052694         0.003126
 H        -2.887811         1.203087         1.337730
 H        -1.740872         2.075942        -1.365092
 H        -2.138301         3.645278         0.967982
 H         0.233513         4.040725        -1.020702
 H        -0.733553         5.365899        -0.066302
 H         1.643353         2.431375         0.678575
 H         1.444465         2.982128         2.432906
 H        -0.640511         2.266905         2.639958
