19
Iteration:  3086charge 0 multiplicity 1
 O         0.444301         0.375462         0.333508
 C        -0.720053         1.193945         0.550532
 C        -2.225421         0.918684         0.557655
 C        -1.504029         2.038842        -0.246135
 C        -1.326883         3.285263         0.694602
 C        -0.383581         4.429471         0.289709
 O         0.956162         3.835374         0.334509
 C         0.953237         2.914839         1.531465
 C        -0.449910         2.310649         1.581026
 H         0.364911        -0.137347        -0.582998
 H        -2.621986         0.155020        -0.119211
 H        -2.899935         1.416708         1.292068
 H        -1.442373         2.226766        -1.308333
 H        -2.353979         3.703944         1.093895
 H        -0.593143         4.799824        -0.816187
 H        -0.529423         5.303461         0.981754
 H         1.837172         2.280784         1.580640
 H         0.944702         3.507937         2.540506
 H        -0.614298         2.039042         2.637916
