19
Iteration:  2015
 O         0.246897         0.112544         0.304737
 C        -0.652560         1.169765         0.579220
 C        -2.097879         0.912104         0.560771
 C        -1.671340         2.145726        -0.244726
 C        -1.380128         3.331007         0.670245
 C        -0.420014         4.441642         0.268358
 O         0.990663         3.953001         0.313789
 C         1.032064         3.087055         1.493762
 C        -0.280552         2.295985         1.578125
 H         0.051625        -0.529108         0.985182
 H        -2.296320         0.088927        -0.092455
 H        -2.808225         0.755029         1.424537
 H        -1.771871         2.088098        -1.341343
 H        -2.315608         3.709015         1.233552
 H        -0.516846         4.883109        -0.732339
 H        -0.463094         5.172575         1.053071
 H         1.862417         2.372098         1.270934
 H         1.198194         3.767949         2.369382
 H        -0.481952         1.820070         2.547868
