19
Iteration:   478charge 0 multiplicity 1
 O         0.345694         0.414634         0.022548
 C        -0.656833         1.171560         0.682143
 C        -2.153899         0.996970         0.701380
 C        -1.533013         2.115872        -0.117844
 C        -1.324229         3.272880         0.774974
 C        -0.405854         4.330864         0.062032
 O         0.879310         3.816529         0.304223
 C         0.990562         3.015407         1.554754
 C        -0.367038         2.225583         1.700972
 H         0.462946        -0.486946         0.438489
 H        -2.480181         0.215630         0.089438
 H        -2.745785         1.285886         1.558763
 H        -1.754158         2.255221        -1.162762
 H        -2.130853         3.689077         1.290935
 H        -0.555271         4.128060        -1.044278
 H        -0.628464         5.403074         0.362348
 H         1.810178         2.389782         1.337363
 H         1.250761         3.674819         2.514987
 H        -0.811102         1.972703         2.570333
