19
Iteration:  2450charge 0 multiplicity 1
 O         0.295726         0.286301         0.250166
 C        -0.615689         1.189101         0.658916
 C        -2.126831         0.919748         0.610847
 C        -1.549235         2.131236        -0.194367
 C        -1.352165         3.305038         0.773861
 C        -0.413433         4.332636         0.224912
 O         0.925682         3.819654         0.313742
 C         0.984600         2.979533         1.409980
 C        -0.448530         2.358763         1.570415
 H         1.290128         0.594211         0.201172
 H        -2.316521         0.130356        -0.072594
 H        -2.922110         1.182424         1.335463
 H        -1.868510         2.313927        -1.232695
 H        -2.310921         3.555268         1.407806
 H        -0.480948         4.518172        -0.895370
 H        -0.485027         5.280768         0.779745
 H         1.622333         2.152713         1.297583
 H         1.383155         3.464539         2.334848
 H        -0.590653         2.286664         2.656162
