19
Iteration:  2538charge 0 multiplicity 1
 O         0.334723         0.281149         0.221898
 C        -0.623529         1.202665         0.660219
 C        -2.161148         1.026004         0.603191
 C        -1.560392         2.040551        -0.221673
 C        -1.375973         3.219011         0.677051
 C        -0.397143         4.340390         0.267226
 O         0.935005         3.826476         0.252730
 C         0.955282         2.987621         1.517220
 C        -0.412815         2.384062         1.660699
 H         0.956150         0.738147        -0.434986
 H        -2.409265         0.006537         0.260126
 H        -2.758587         1.317946         1.491640
 H        -1.568249         1.870671        -1.325706
 H        -2.238155         3.782139         1.339716
 H        -0.615952         4.778533        -0.771543
 H        -0.523900         5.162011         0.974670
 H         1.636789         2.177431         1.238547
 H         1.329113         3.576558         2.404471
 H        -0.605352         2.230255         2.749128
