19
Iteration:  3469
 O         0.204466         0.094965         0.363752
 C        -0.676916         1.228496         0.540046
 C        -2.134933         0.905391         0.443865
 C        -1.571066         2.111657        -0.268782
 C        -1.274721         3.274646         0.763994
 C        -0.383727         4.311404         0.076791
 O         0.887166         4.143951         0.623484
 C         1.057295         2.946067         1.433909
 C        -0.388103         2.396453         1.644718
 H         1.195469         0.171839         0.114336
 H        -2.151557        -0.073680        -0.084783
 H        -2.865223         0.829707         1.217581
 H        -1.782754         2.186435        -1.362108
 H        -2.232317         3.767939         1.251718
 H        -0.333435         3.989087        -0.992493
 H        -0.711239         5.332106         0.095904
 H         1.630745         2.312602         0.859851
 H         1.437177         3.311454         2.343668
 H        -0.582773         2.040776         2.653834
