19
Iteration:  3424
 O         0.275622         0.331225         0.287078
 C        -0.695990         1.207150         0.616993
 C        -2.202264         0.823304         0.510120
 C        -1.577071         1.965794        -0.275994
 C        -1.342701         3.261899         0.634181
 C        -0.350223         4.360105         0.103374
 O         1.004708         4.018153         0.588983
 C         0.999904         2.899092         1.496844
 C        -0.398002         2.380393         1.633987
 H         1.077286         0.877451        -0.062196
 H        -2.559888        -0.121470         0.126109
 H        -2.830867         1.145162         1.331657
 H        -1.644086         2.143577        -1.333162
 H        -2.313790         3.677463         1.166835
 H        -0.422356         4.474857        -0.991384
 H        -0.586699         5.309048         0.611176
 H         1.595638         2.203254         0.968605
 H         1.388429         3.345355         2.367290
 H        -0.781027         2.353516         2.664858
