19
Iteration:  2657charge 0 multiplicity 1
 O         0.341622         0.245644         0.300846
 C        -0.664941         1.291595         0.597480
 C        -2.110703         0.795617         0.602397
 C        -1.677134         2.083417        -0.208792
 C        -1.339562         3.316814         0.697245
 C        -0.380309         4.370329         0.258469
 O         0.937222         3.768376         0.260869
 C         0.961621         3.019119         1.482493
 C        -0.390282         2.467037         1.666919
 H         0.718730         0.599121        -0.610090
 H        -2.240636        -0.019208        -0.133776
 H        -2.808891         0.876301         1.432925
 H        -1.724636         2.197175        -1.298900
 H        -2.131258         3.607171         1.309262
 H        -0.517922         4.756649        -0.812581
 H        -0.388649         5.222005         0.985773
 H         1.884441         2.221758         1.440267
 H         1.331455         3.648496         2.316233
 H        -0.759801         2.305140         2.721555
