19
Iteration:  4659charge 0 multiplicity 1
 O         0.222034         0.073163         0.295751
 C        -0.672330         1.123972         0.610312
 C        -2.150623         1.012132         0.671354
 C        -1.535343         1.950070        -0.342989
 C        -1.224970         3.209114         0.477449
 C        -0.294484         4.433657         0.063117
 O         0.803750         4.340294         0.965506
 C         1.035775         2.947807         1.329652
 C        -0.356647         2.302203         1.447526
 H        -0.274835        -0.733656         0.113475
 H        -2.545809        -0.061704         0.356016
 H        -2.614672         1.181277         1.656788
 H        -1.734474         1.753558        -1.434711
 H        -2.092148         3.678471         0.918752
 H        -0.095469         4.525736        -1.019044
 H        -0.870763         5.351427         0.233981
 H         1.677562         2.504596         0.586182
 H         1.671294         2.882754         2.230864
 H        -0.539404         2.340782         2.611300
