19
Iteration:  2490
 O         0.279146         0.179782         0.300131
 C        -0.674322         1.221245         0.623157
 C        -2.116225         0.886787         0.463368
 C        -1.659448         2.158016        -0.166353
 C        -1.335224         3.226729         0.853082
 C        -0.389584         4.356871         0.240224
 O         0.973219         3.755189         0.252229
 C         0.974797         3.109283         1.443139
 C        -0.343708         2.424032         1.626475
 H         0.993686         0.657946        -0.011128
 H        -2.143858         0.120378        -0.288970
 H        -2.889205         0.820043         1.198021
 H        -2.026447         2.428740        -1.136146
 H        -2.145165         3.681737         1.338925
 H        -0.659691         4.579542        -0.756804
 H        -0.426933         5.300445         0.827809
 H         2.004400         2.556850         1.538959
 H         0.878456         3.852961         2.239850
 H        -0.488412         2.205606         2.704966
