19
Iteration:  2392
 O         0.316721         0.187674         0.296115
 C        -0.695978         1.218099         0.568107
 C        -2.101156         0.925607         0.570896
 C        -1.641550         2.174537        -0.195450
 C        -1.311579         3.255934         0.729219
 C        -0.402822         4.359249         0.224742
 O         0.953703         3.836672         0.280121
 C         0.969477         3.098080         1.506751
 C        -0.320324         2.304137         1.660658
 H         0.530235        -0.168252        -0.512759
 H        -2.442196         0.133049        -0.122204
 H        -2.656211         0.970865         1.435935
 H        -1.792030         2.402347        -1.243926
 H        -2.235589         3.786095         1.328678
 H        -0.656180         4.657428        -0.763294
 H        -0.562171         5.244557         0.863842
 H         1.862249         2.388406         1.580347
 H         0.986702         3.895396         2.257181
 H        -0.698664         2.039533         2.669201
