19
Iteration:   394charge 0 multiplicity 1
 O         0.347229         0.238584         0.210701
 C        -0.629491         1.192258         0.687642
 C        -2.094305         1.012491         0.547450
 C        -1.477211         2.137183        -0.233902
 C        -1.316124         3.279878         0.738101
 C        -0.533674         4.469172         0.329932
 O         0.822560         3.810447         0.225135
 C         1.004240         2.916487         1.383529
 C        -0.321378         2.364314         1.724439
 H         0.114058        -0.593274         0.557011
 H        -2.623025         0.207869         0.111976
 H        -2.559964         1.325873         1.494565
 H        -1.555285         2.159589        -1.285521
 H        -2.360367         3.614195         1.141206
 H        -0.775852         4.744677        -0.655956
 H        -0.490793         5.381280         0.898586
 H         1.705804         2.115164         1.073754
 H         1.441139         3.424117         2.181290
 H        -0.582635         2.147433         2.866926
