19
Iteration:  2735charge 0 multiplicity 1
 O         0.120418         0.133099         0.229247
 C        -0.595429         1.202630         0.653569
 C        -2.057507         0.880555         0.552928
 C        -1.564282         2.069973        -0.204873
 C        -1.258705         3.290715         0.714820
 C        -0.412000         4.392261         0.295080
 O         0.920629         3.834698         0.236854
 C         0.914518         3.142585         1.513678
 C        -0.359357         2.403926         1.588289
 H         1.039515         0.495022         0.386676
 H        -2.196588        -0.096777         0.086895
 H        -2.503272         0.936498         1.583526
 H        -1.663453         2.182165        -1.273907
 H        -2.112657         3.691275         1.186191
 H        -0.654806         4.769266        -0.782447
 H        -0.415558         5.214277         1.009655
 H         1.983940         2.547122         1.513692
 H         1.051934         3.875908         2.304302
 H        -0.591620         2.072222         2.647892
