19
Iteration:  2539
 O         0.338294         0.279560         0.228061
 C        -0.631170         1.201001         0.651889
 C        -2.159260         1.022073         0.603287
 C        -1.572594         2.038007        -0.217687
 C        -1.378040         3.219926         0.678470
 C        -0.393352         4.344139         0.263502
 O         0.938728         3.829036         0.252818
 C         0.962261         2.985430         1.515000
 C        -0.417588         2.383911         1.662305
 H         0.969965         0.755721        -0.448056
 H        -2.397590        -0.010943         0.234963
 H        -2.755150         1.356529         1.500866
 H        -1.548417         1.892288        -1.308703
 H        -2.237037         3.794267         1.323267
 H        -0.623330         4.775162        -0.767658
 H        -0.535331         5.150677         0.983425
 H         1.648037         2.226896         1.248990
 H         1.349932         3.564657         2.412328
 H        -0.617147         2.188857         2.732808
