19
Iteration:  1541charge 0 multiplicity 1
 O         0.411444         0.381863         0.289423
 C        -0.655916         1.265420         0.606779
 C        -2.140207         1.008971         0.432405
 C        -1.680553         2.193832        -0.160889
 C        -1.297880         3.296870         0.851423
 C        -0.396931         4.279430         0.249190
 O         0.850199         3.670599         0.222690
 C         1.006397         3.016110         1.446115
 C        -0.353235         2.325356         1.687020
 H         0.256270        -0.481347         0.487307
 H        -2.332358         0.153848        -0.301715
 H        -2.898868         0.864475         1.278465
 H        -1.658459         2.341722        -1.214066
 H        -2.169893         3.616228         1.353095
 H        -0.642853         4.519951        -0.875058
 H        -0.402492         5.242323         0.861963
 H         1.860054         2.413142         1.175837
 H         1.233474         3.635739         2.453409
 H        -0.597832         1.997108         2.730125
