19
Iteration:  3601
 O         0.164414         0.153361         0.380010
 C        -0.747690         1.182152         0.704692
 C        -2.164798         0.860096         0.475974
 C        -1.600436         2.085855        -0.284080
 C        -1.250441         3.226109         0.638228
 C        -0.274961         4.288749         0.008478
 O         0.826249         4.304113         0.942339
 C         1.100797         2.899928         1.114668
 C        -0.373190         2.351641         1.562950
 H         0.993610         0.339963         0.667669
 H        -2.286506        -0.028357        -0.102647
 H        -2.817143         0.934096         1.344802
 H        -1.693283         1.921021        -1.354026
 H        -2.139164         3.760606         1.101424
 H         0.155498         4.044731        -0.943476
 H        -0.839236         5.181281        -0.074411
 H         1.777094         2.596846         0.331323
 H         1.703869         2.753175         2.108932
 H        -0.380184         2.227218         2.627405
