19
Iteration:  1963charge 0 multiplicity 1
 O         0.333166         0.383251         0.230975
 C        -0.637995         1.193433         0.742159
 C        -2.211651         1.026240         0.479943
 C        -1.435887         2.085941        -0.239378
 C        -1.353050         3.254913         0.759542
 C        -0.451033         4.310693         0.251755
 O         0.839876         3.775221         0.303656
 C         1.028175         2.944697         1.376356
 C        -0.332462         2.407399         1.698155
 H         0.158773        -0.387309         0.680886
 H        -2.610005         0.111354         0.102185
 H        -2.938865         1.436302         1.198026
 H        -1.330720         2.199484        -1.324100
 H        -2.355610         3.542235         1.215088
 H        -0.554125         4.538680        -0.837147
 H        -0.469751         5.286780         0.867895
 H         1.970092         2.193684         1.246856
 H         1.372512         3.612098         2.201299
 H        -0.671508         2.025575         2.759417
