19
Iteration:  1545
 O         0.439597         0.373801         0.276407
 C        -0.628779         1.245956         0.595100
 C        -2.161358         1.017323         0.452930
 C        -1.682644         2.212351        -0.167198
 C        -1.309042         3.277912         0.833347
 C        -0.402342         4.304381         0.206697
 O         0.854719         3.679861         0.222252
 C         0.977646         2.990638         1.472641
 C        -0.337320         2.328526         1.715538
 H         0.257114        -0.637335         0.530425
 H        -2.435671         0.328184        -0.299024
 H        -2.704285         0.993514         1.319170
 H        -1.817112         2.314396        -1.269895
 H        -2.175350         3.707543         1.425769
 H        -0.662337         4.543749        -0.749318
 H        -0.466749         5.176047         0.873661
 H         1.877913         2.369271         1.328699
 H         1.229414         3.619199         2.329327
 H        -0.670510         1.975667         2.709687
