19
Iteration:  1139
 O         0.328702         0.367852         0.207868
 C        -0.619254         1.263625         0.687507
 C        -2.096208         1.012453         0.595102
 C        -1.441057         2.173508        -0.301178
 C        -1.350939         3.262350         0.803822
 C        -0.491067         4.389310         0.293278
 O         0.823126         3.696721         0.163692
 C         1.033066         2.897410         1.501805
 C        -0.379587         2.367181         1.661553
 H         0.158920        -0.486793         0.549729
 H        -2.416126         0.057950         0.030968
 H        -2.645314         1.396493         1.476366
 H        -1.532375         2.227889        -1.354783
 H        -2.430728         3.432265         1.115837
 H        -0.901393         4.714824        -0.622102
 H        -0.517372         5.107792         1.150164
 H         1.903112         2.116700         1.312997
 H         1.325327         3.698178         2.226563
 H        -0.618686         2.085786         2.747411
