19
Iteration:  2805
 O         0.363223         0.368752         0.293918
 C        -0.644756         1.185826         0.670597
 C        -2.152432         0.876496         0.473091
 C        -1.612545         2.113670        -0.141688
 C        -1.448161         3.319902         0.727812
 C        -0.380933         4.333917         0.210425
 O         0.948666         3.890071         0.362532
 C         1.028276         2.930561         1.412818
 C        -0.369308         2.407419         1.608765
 H         0.161680        -0.519124         0.384969
 H        -2.214351        -0.067358        -0.105696
 H        -2.801896         0.918185         1.343441
 H        -1.638104         2.188027        -1.228236
 H        -2.322465         3.769258         1.154578
 H        -0.532508         4.465222        -0.819067
 H        -0.659252         5.261576         0.800784
 H         1.665576         1.922942         1.012446
 H         1.680709         3.268359         2.273532
 H        -0.756700         2.420532         2.631571
