19
Iteration:  4622
 O         0.208758         0.117602         0.314520
 C        -0.709496         1.126730         0.664916
 C        -2.206878         0.937717         0.450346
 C        -1.551398         2.049419        -0.291723
 C        -1.222641         3.205941         0.661667
 C        -0.296785         4.296701         0.025681
 O         0.818626         4.353726         0.947236
 C         1.052888         2.921666         1.195121
 C        -0.343506         2.382520         1.541020
 H         0.484582        -0.316869         1.195936
 H        -2.254449         0.076013        -0.091649
 H        -2.695083         0.883341         1.409627
 H        -1.603002         2.135098        -1.374697
 H        -2.149813         3.604004         1.067052
 H         0.046943         4.091922        -1.020350
 H        -0.804346         5.311980         0.064938
 H         1.400815         2.493453         0.286095
 H         1.684288         2.792419         2.180846
 H        -0.610351         2.127527         2.639795
