19
Iteration:  3690charge 0 multiplicity 1
 O         0.200194         0.080177         0.274325
 C        -0.665271         1.123981         0.633090
 C        -2.153812         0.905718         0.513445
 C        -1.556266         2.064824        -0.242970
 C        -1.240714         3.299710         0.659028
 C        -0.283641         4.227198        -0.013346
 O         0.860560         4.354235         0.894552
 C         1.031139         3.035964         1.395617
 C        -0.375955         2.341551         1.510095
 H        -0.287655        -0.556333        -0.153936
 H        -2.382719         0.041296        -0.172050
 H        -2.806856         1.014607         1.436200
 H        -1.864354         2.133783        -1.314503
 H        -2.073501         3.658936         1.307381
 H        -0.022976         3.753534        -0.952650
 H        -0.671273         5.165339        -0.264428
 H         1.540622         2.398447         0.702432
 H         1.763134         3.030020         2.216866
 H        -0.621287         2.212776         2.548871
