19
Iteration:   569charge 0 multiplicity 1
 O         0.301722         0.400958         0.267890
 C        -0.633055         1.258131         0.701863
 C        -2.230037         1.006148         0.481947
 C        -1.457973         2.088922        -0.231567
 C        -1.303040         3.241984         0.847930
 C        -0.485048         4.292806         0.260576
 O         0.822471         3.808502         0.222711
 C         1.031619         2.950742         1.381854
 C        -0.247662         2.316289         1.665441
 H        -0.061776        -0.559448         0.497663
 H        -2.400306        -0.068490         0.181783
 H        -2.895927         1.383295         1.297643
 H        -1.447369         2.326529        -1.347703
 H        -2.175235         3.554998         1.384671
 H        -0.665024         4.473973        -0.771526
 H        -0.552550         5.245734         0.940302
 H         1.941838         2.278768         1.104649
 H         1.207761         3.620689         2.310125
 H        -0.423927         2.307283         2.740878
