19
Iteration:  1440charge 0 multiplicity 1
 O         0.165438         0.069508         0.216079
 C        -0.681449         1.109698         0.639963
 C        -2.166156         0.881064         0.520033
 C        -1.578293         2.066346        -0.158858
 C        -1.295315         3.254050         0.765775
 C        -0.429756         4.565671         0.257500
 O         0.996238         4.025014         0.330595
 C         1.054005         3.055594         1.441495
 C        -0.268205         2.357646         1.582704
 H         0.428702        -0.463289         1.030396
 H        -2.423865         0.170151        -0.284353
 H        -2.852935         0.912133         1.497442
 H        -1.575533         2.101642        -1.271805
 H        -2.199527         3.573261         1.234047
 H        -0.656230         4.792105        -0.875885
 H        -0.695899         5.498615         0.856904
 H         1.829417         2.346230         1.093404
 H         1.216525         3.774401         2.317653
 H        -0.661840         2.073298         2.558818
