19
Iteration:  2369charge 0 multiplicity 1
 O         0.354502         0.253098         0.339044
 C        -0.639952         1.243488         0.608135
 C        -2.127137         0.997816         0.499279
 C        -1.607443         2.114357        -0.190938
 C        -1.321100         3.301288         0.854560
 C        -0.424899         4.355649         0.186899
 O         0.888895         3.828317         0.315176
 C         1.023163         2.984790         1.496929
 C        -0.372060         2.335654         1.535640
 H         0.241798        -0.279547        -0.560883
 H        -2.454461         0.119185        -0.089173
 H        -2.627372         1.050488         1.428785
 H        -1.692732         2.261702        -1.286875
 H        -2.313520         3.584033         1.495270
 H        -0.719581         4.366314        -0.837656
 H        -0.536194         5.391235         0.541604
 H         1.943159         2.236654         1.457809
 H         1.024029         3.629117         2.361506
 H        -0.511126         2.115369         2.631544
