19
Iteration:  4119charge 0 multiplicity 1
 O         0.180232         0.123223         0.143457
 C        -0.697379         1.096289         0.606622
 C        -2.166756         0.939836         0.590374
 C        -1.517674         1.974188        -0.358195
 C        -1.247217         3.257855         0.586017
 C        -0.224185         4.275601        -0.017443
 O         0.848921         4.349018         0.976220
 C         1.039021         3.039989         1.428890
 C        -0.398961         2.348629         1.560821
 H        -0.046240        -0.594497         0.704923
 H        -2.675912        -0.002586         0.206473
 H        -2.730241         1.232526         1.603866
 H        -1.571028         2.000901        -1.474469
 H        -2.221305         3.524958         1.147060
 H         0.136727         3.642177        -0.810342
 H        -0.532077         5.240006        -0.227757
 H         1.596479         2.576642         0.680212
 H         1.557101         3.088604         2.442165
 H        -0.812570         2.336323         2.552635
