19
Iteration:  2904charge 0 multiplicity 1
 O         0.270795         0.149454         0.328346
 C        -0.678741         1.187686         0.647120
 C        -2.136916         0.907301         0.456616
 C        -1.615417         2.106795        -0.207226
 C        -1.334890         3.246976         0.765898
 C        -0.365373         4.386644         0.183117
 O         0.974502         3.945247         0.317266
 C         1.001262         3.035776         1.530750
 C        -0.391883         2.379591         1.623035
 H         0.922013         0.527819        -0.246875
 H        -2.223197         0.087946        -0.232968
 H        -2.908469         0.757455         1.195230
 H        -1.906762         2.335754        -1.227655
 H        -2.136920         3.641076         1.281541
 H        -0.611640         4.708705        -0.779656
 H        -0.519543         5.282296         0.807759
 H         1.751237         2.162188         1.255283
 H         1.234303         3.569534         2.443376
 H        -0.651248         2.171246         2.677579
