19
Iteration:  2623
 O         0.317089         0.279446         0.203933
 C        -0.663687         1.242241         0.651190
 C        -2.150834         0.946071         0.634923
 C        -1.516757         2.090906        -0.220946
 C        -1.311359         3.254266         0.745039
 C        -0.379109         4.358755         0.217161
 O         0.924500         3.741917         0.224109
 C         0.871892         3.079823         1.512004
 C        -0.360027         2.303980         1.734230
 H         0.807815         0.617250        -0.630656
 H        -2.486670         0.029426         0.152916
 H        -2.853112         1.294191         1.333699
 H        -1.292490         2.218352        -1.324487
 H        -2.181110         3.588239         1.320975
 H        -0.674458         4.580193        -0.841717
 H        -0.528343         5.291672         0.815145
 H         1.957194         2.500966         1.479130
 H         0.719145         3.877802         2.234937
 H        -0.603241         2.108907         2.818760
