19
Iteration:  4984
 O         0.465728         0.385943         0.494463
 C        -0.648304         1.189430         0.596794
 C        -2.076192         0.938099         0.439240
 C        -1.551129         2.098080        -0.257165
 C        -1.380095         3.317410         0.619402
 C        -0.397696         4.379135         0.391623
 O         0.895302         3.770226         0.321591
 C         0.902386         2.908861         1.404993
 C        -0.527083         2.345032         1.572354
 H         0.545817        -0.128738        -0.392619
 H        -2.353363         0.083494        -0.216649
 H        -2.801685         1.205534         1.210959
 H        -1.480741         2.184887        -1.327999
 H        -2.253759         3.808074         1.194749
 H        -0.522518         4.998873        -0.565886
 H        -0.346362         5.210875         1.203525
 H         1.685287         2.192662         1.223363
 H         1.262386         3.387565         2.298690
 H        -0.761566         2.215482         2.605363
