19
Iteration:   655
 O         0.270526         0.218947         0.262990
 C        -0.709654         1.108943         0.721520
 C        -2.161816         1.015333         0.601139
 C        -1.476048         2.119011        -0.261037
 C        -1.303867         3.198190         0.779257
 C        -0.472114         4.443730         0.308940
 O         0.925524         4.007884         0.304691
 C         1.033014         2.971945         1.313345
 C        -0.340119         2.310059         1.579776
 H         0.250446        -0.577209         0.695935
 H        -2.410294         0.068713         0.123075
 H        -2.941672         1.175656         1.352505
 H        -1.317711         2.161903        -1.408312
 H        -2.153153         3.419792         1.366705
 H        -0.758209         4.652616        -0.745801
 H        -0.565957         5.353558         0.840299
 H         1.695131         2.187910         0.815385
 H         1.404333         3.388412         2.248760
 H        -0.559994         2.310990         2.602193
