19
Iteration:   105
 O         0.135771         0.201380         0.250356
 C        -0.621338         1.183204         0.686479
 C        -2.104061         0.797630         0.508769
 C        -1.506957         1.991580        -0.176346
 C        -1.350066         3.237770         0.757300
 C        -0.415545         4.469587         0.347769
 O         0.887286         3.951929         0.190334
 C         1.125702         3.125560         1.391411
 C        -0.321363         2.441297         1.651509
 H        -0.069379        -0.615151         0.786195
 H        -2.218201         0.074406        -0.334485
 H        -2.805652         0.880025         1.353175
 H        -1.696480         2.128843        -1.237574
 H        -2.305292         3.536885         1.188066
 H        -0.675168         4.970860        -0.665339
 H        -0.399986         5.171324         1.219232
 H         1.841402         2.335057         1.008734
 H         1.388914         3.660200         2.346859
 H        -0.495084         2.220604         2.764637
