19
Iteration:  1572charge 0 multiplicity 1
 O         0.360440         0.366095         0.162265
 C        -0.652268         1.231376         0.560659
 C        -2.113996         0.927668         0.669360
 C        -1.602748         2.108433        -0.194402
 C        -1.351545         3.329481         0.770594
 C        -0.309888         4.370913         0.260972
 O         0.946865         3.737064         0.304778
 C         0.886203         3.009565         1.475394
 C        -0.416865         2.362731         1.583505
 H         0.201562        -0.657262         0.360584
 H        -2.342093         0.004158         0.032175
 H        -2.557440         1.105158         1.775183
 H        -1.637715         1.999040        -1.271059
 H        -2.283194         3.706921         1.254811
 H        -0.608194         4.580718        -0.860306
 H        -0.374008         5.274628         0.875230
 H         1.795726         2.409205         1.414402
 H         1.027598         3.616127         2.386549
 H        -0.790224         2.005797         2.529934
