19
Iteration:  3820charge 0 multiplicity 1
 O         0.216384        -0.031929         0.312112
 C        -0.710746         1.099582         0.631027
 C        -2.243910         0.997261         0.474590
 C        -1.502915         2.082441        -0.298369
 C        -1.218620         3.272111         0.622188
 C        -0.299926         4.245496         0.029113
 O         0.805852         4.341817         0.925153
 C         1.072642         3.023878         1.432227
 C        -0.302293         2.316318         1.506056
 H         0.078128        -0.208726        -0.715272
 H        -2.508543         0.043192         0.045454
 H        -2.836151         1.242933         1.289373
 H        -1.801592         2.312664        -1.348332
 H        -2.079267         3.699207         1.004019
 H         0.127052         4.003351        -0.999925
 H        -0.826897         5.188421        -0.028130
 H         1.675360         2.570968         0.703214
 H         1.419410         3.138340         2.466655
 H        -0.524758         2.384187         2.544233
