19
Iteration:  4485
 O         0.238376         0.169883         0.281913
 C        -0.696492         1.143768         0.655164
 C        -2.231902         0.872214         0.452002
 C        -1.561876         2.081752        -0.262927
 C        -1.272087         3.190372         0.672920
 C        -0.262066         4.198169        -0.029591
 O         0.867896         4.369035         0.887516
 C         1.053460         2.985912         1.384730
 C        -0.355825         2.339503         1.636864
 H         0.179449        -0.130291        -0.644233
 H        -2.342043        -0.025181        -0.169138
 H        -3.097277         0.941278         1.289464
 H        -1.700643         2.244782        -1.310432
 H        -2.204141         3.727624         1.175253
 H         0.139344         3.646814        -0.899492
 H        -0.530589         5.236274        -0.237622
 H         1.533712         2.400788         0.568778
 H         1.521662         3.086008         2.301653
 H        -0.668553         2.296796         2.625311
