19
Iteration:  2488charge 0 multiplicity 1
 O         0.269535         0.190268         0.313560
 C        -0.672926         1.206549         0.608612
 C        -2.099473         0.889883         0.470069
 C        -1.659990         2.181258        -0.158462
 C        -1.333785         3.220188         0.849857
 C        -0.395783         4.345375         0.243022
 O         0.971304         3.755494         0.253492
 C         1.001522         3.115141         1.450469
 C        -0.368357         2.413931         1.605988
 H         1.055673         0.706026         0.007847
 H        -2.203855         0.071076        -0.308964
 H        -2.959249         0.772003         1.177991
 H        -2.043709         2.424286        -1.129532
 H        -2.074433         3.656909         1.360755
 H        -0.637817         4.571903        -0.779955
 H        -0.441129         5.315834         0.816002
 H         1.982447         2.580182         1.501182
 H         0.884174         3.855821         2.252873
 H        -0.460121         2.205689         2.685391
