19
Iteration:  2614
 O         0.249853         0.312124         0.194445
 C        -0.582366         1.251875         0.626890
 C        -2.177052         0.960154         0.629103
 C        -1.503750         2.101438        -0.183617
 C        -1.292242         3.180945         0.819982
 C        -0.441059         4.356651         0.155232
 O         0.895044         3.742926         0.241655
 C         0.951250         3.091717         1.553710
 C        -0.384329         2.304762         1.643674
 H         1.089848         0.560796        -0.226724
 H        -2.328164         0.023872         0.058864
 H        -2.958093         1.334543         1.278035
 H        -1.402202         2.179256        -1.267043
 H        -2.102027         3.601894         1.243386
 H        -0.626656         4.530967        -0.966890
 H        -0.474250         5.312700         0.719137
 H         1.886977         2.441044         1.648510
 H         1.092076         3.788262         2.389904
 H        -0.735211         2.138528         2.694742
