19
Iteration:  3217
 O         0.387685         0.228920         0.284624
 C        -0.729063         1.159368         0.604604
 C        -2.207629         0.822185         0.406038
 C        -1.592306         2.096617        -0.278742
 C        -1.355059         3.261484         0.714943
 C        -0.363333         4.399750         0.269195
 O         0.994711         3.964466         0.433144
 C         1.006933         3.068650         1.547028
 C        -0.391585         2.340427         1.585194
 H         0.106968        -0.604544         0.654779
 H        -2.460352        -0.028217        -0.255375
 H        -2.957268         1.167637         1.119602
 H        -1.655703         2.403893        -1.345118
 H        -2.162269         3.635224         1.244430
 H        -0.375417         4.556680        -0.881617
 H        -0.612944         5.266129         0.895157
 H         1.874794         2.378032         1.307250
 H         1.071830         3.682164         2.458829
 H        -0.744289         2.439432         2.630248
