19
Iteration:  3826charge 0 multiplicity 1
 O         0.230343        -0.019649         0.302187
 C        -0.747181         1.107494         0.624506
 C        -2.202741         0.994075         0.494601
 C        -1.492936         2.038367        -0.312266
 C        -1.225727         3.263431         0.611815
 C        -0.258517         4.289745         0.018613
 O         0.821568         4.350348         0.959608
 C         1.049378         3.018683         1.396086
 C        -0.361730         2.317885         1.520585
 H        -0.002212        -0.165472        -0.616460
 H        -2.482722         0.025300         0.041086
 H        -2.875073         1.368400         1.371123
 H        -1.877248         2.086167        -1.321422
 H        -2.240535         3.601749         1.153187
 H         0.020279         4.006792        -0.993818
 H        -0.635030         5.357048        -0.133013
 H         1.776722         2.518762         0.633356
 H         1.639176         3.144049         2.326653
 H        -0.670233         2.189659         2.622306
