19
Iteration:  4505charge 0 multiplicity 1
 O         0.190956         0.140814         0.294171
 C        -0.705756         1.113134         0.673375
 C        -2.198980         0.888398         0.492148
 C        -1.472306         2.040885        -0.294090
 C        -1.286527         3.249357         0.664476
 C        -0.353481         4.216810         0.050183
 O         0.856647         4.298899         0.842785
 C         1.078230         3.040737         1.435692
 C        -0.324584         2.309218         1.509297
 H         0.044571         0.078053        -0.736584
 H        -2.618466         0.172699        -0.145773
 H        -2.921713         1.396182         1.171941
 H        -1.155983         2.012803        -1.321174
 H        -2.053857         3.864436         1.180956
 H        -0.151986         3.935346        -1.076446
 H        -0.792592         5.209187         0.038181
 H         1.702005         2.310175         0.843566
 H         1.422987         3.305838         2.434537
 H        -0.468057         2.156650         2.564586
