19
Iteration:  3060charge 0 multiplicity 1
 O         0.410362         0.388627         0.327701
 C        -0.739770         1.197680         0.656157
 C        -2.147332         0.865688         0.514706
 C        -1.626572         1.992310        -0.289074
 C        -1.338108         3.258123         0.637947
 C        -0.307383         4.380751         0.348413
 O         0.984288         3.895989         0.393238
 C         0.971673         2.891520         1.469336
 C        -0.471190         2.420448         1.574997
 H         0.245240         0.228904        -0.692504
 H        -2.435532         0.062127        -0.160502
 H        -2.817670         1.213288         1.283978
 H        -1.798981         1.993791        -1.356465
 H        -2.172061         3.699653         1.008294
 H        -0.480639         4.779957        -0.638968
 H        -0.544815         5.139051         1.126673
 H         1.832974         2.070146         1.399889
 H         1.204882         3.445002         2.415594
 H        -0.825130         2.508007         2.626600
