19
Iteration:   738charge 0 multiplicity 1
 O         0.424468         0.311122         0.168199
 C        -0.553901         1.202241         0.571924
 C        -2.084958         0.992834         0.601213
 C        -1.653582         2.154964        -0.156529
 C        -1.352967         3.313881         0.790121
 C        -0.403261         4.368253         0.254679
 O         0.871359         3.646153         0.244219
 C         0.931593         3.014623         1.491220
 C        -0.416499         2.378371         1.610907
 H         0.339766        -0.664341         0.369562
 H        -2.644666         0.192095         0.051882
 H        -2.572618         1.379187         1.497303
 H        -1.931555         2.223688        -1.225545
 H        -2.042497         3.873855         1.516125
 H        -0.737982         4.707640        -0.745069
 H        -0.273784         5.245849         0.911717
 H         1.781985         2.424279         1.566360
 H         1.160990         3.782994         2.266959
 H        -0.793484         2.182057         2.708989
