19
Iteration:  1001
 O         0.259484         0.205354         0.209853
 C        -0.688374         1.181159         0.595341
 C        -2.163381         0.816492         0.497057
 C        -1.676819         2.194735        -0.167219
 C        -1.313013         3.276928         0.848442
 C        -0.395284         4.388078         0.237479
 O         0.959693         3.871354         0.287566
 C         1.063658         3.155550         1.461428
 C        -0.307014         2.279721         1.589533
 H         0.350097        -0.299662         1.070042
 H        -2.303213        -0.034700        -0.191896
 H        -2.801067         0.870756         1.330320
 H        -1.735259         2.285384        -1.231881
 H        -2.095896         3.760066         1.446394
 H        -0.610851         4.533167        -0.840868
 H        -0.529688         5.318121         0.853731
 H         1.985007         2.649302         1.427546
 H         1.022902         3.888522         2.332866
 H        -0.414916         2.059458         2.581961
