19
Iteration:  2457charge 0 multiplicity 1
 O         0.329033         0.240063         0.286044
 C        -0.620789         1.248070         0.578306
 C        -2.153307         0.923724         0.559217
 C        -1.638135         2.156328        -0.197126
 C        -1.342224         3.267221         0.808340
 C        -0.419142         4.374495         0.190511
 O         0.938579         3.812568         0.304356
 C         0.960860         2.964580         1.415882
 C        -0.399136         2.352844         1.646607
 H         1.244346         0.692687         0.356058
 H        -2.325519         0.004340        -0.008156
 H        -2.893544         1.055169         1.305328
 H        -1.866979         2.313897        -1.229802
 H        -2.268508         3.702477         1.327838
 H        -0.518144         4.477762        -0.852645
 H        -0.473030         5.341638         0.706747
 H         1.890409         2.200960         1.321249
 H         1.224445         3.511277         2.341869
 H        -0.346468         2.176758         2.752610
