19
Iteration:  1989
 O         0.254693         0.197422         0.229324
 C        -0.661124         1.152524         0.672643
 C        -2.112230         0.904608         0.586387
 C        -1.507106         2.088131        -0.259390
 C        -1.283011         3.285067         0.717338
 C        -0.386684         4.465927         0.344918
 O         0.940742         3.869939         0.218663
 C         0.970523         3.052216         1.438453
 C        -0.413320         2.395575         1.639461
 H         0.031731        -0.532399         0.745516
 H        -2.434959         0.063082        -0.100236
 H        -2.901763         1.009509         1.334001
 H        -1.498804         1.989607        -1.347037
 H        -2.196632         3.583093         1.256068
 H        -0.639477         4.897973        -0.631028
 H        -0.318335         5.207676         1.147277
 H         1.765282         2.367860         1.418845
 H         1.173441         3.865492         2.249633
 H        -0.776484         2.114610         2.563358
