19
Iteration:  2811
 O         0.382679         0.346743         0.266199
 C        -0.691820         1.152623         0.673934
 C        -2.086691         0.869265         0.494688
 C        -1.647270         2.149350        -0.157662
 C        -1.401238         3.306785         0.757909
 C        -0.380111         4.317622         0.208219
 O         0.948251         3.889307         0.351817
 C         1.021019         2.906696         1.416914
 C        -0.423155         2.434208         1.615600
 H         0.229460        -0.541850         0.699540
 H        -2.209396         0.010737        -0.176098
 H        -2.865827         0.807897         1.307472
 H        -1.628941         2.279730        -1.252245
 H        -2.307950         3.797406         1.232390
 H        -0.405443         4.705225        -0.895432
 H        -0.519068         5.246749         0.776722
 H         1.597649         2.214736         0.915708
 H         1.575815         3.382125         2.221403
 H        -0.835440         2.458628         2.659568
