19
Iteration:  2584charge 0 multiplicity 1
 O         0.275822         0.197776         0.270677
 C        -0.605059         1.229172         0.626909
 C        -2.057939         0.812286         0.549744
 C        -1.783317         2.161658        -0.155051
 C        -1.336584         3.302224         0.797160
 C        -0.368373         4.365527         0.156924
 O         0.989462         3.853384         0.289486
 C         1.004364         3.034741         1.475897
 C        -0.426930         2.352119         1.631957
 H         1.243321         0.574350         0.059558
 H        -2.243744        -0.025609        -0.193051
 H        -2.883629         0.750785         1.351154
 H        -1.819293         2.388408        -1.201742
 H        -2.320390         3.950215         1.285086
 H        -0.509823         4.648867        -0.925397
 H        -0.403143         5.316438         0.687498
 H         1.755626         2.330596         1.417801
 H         1.166082         3.719062         2.370003
 H        -0.734284         2.199131         2.675362
