19
Iteration:   143charge 0 multiplicity 1
 O         0.402738         0.357340         0.224670
 C        -0.643470         1.162951         0.648437
 C        -2.156714         1.024911         0.558496
 C        -1.428501         2.168773        -0.114125
 C        -1.367008         3.256611         0.849350
 C        -0.452648         4.355143         0.225039
 O         0.857796         3.759632         0.159706
 C         0.944416         3.015229         1.396880
 C        -0.380103         2.273507         1.684940
 H         0.403219        -0.414233         0.694566
 H        -2.690831         0.397341        -0.144591
 H        -2.628695         1.122030         1.522255
 H        -1.764436         2.143295        -1.167999
 H        -2.353246         3.558714         1.329095
 H        -0.763195         4.605717        -0.749906
 H        -0.438942         5.322739         0.741072
 H         1.721264         2.287113         1.245396
 H         1.313641         3.680025         2.161138
 H        -0.542840         2.112027         2.713780
