19
Iteration:  4374charge 0 multiplicity 1
 O         0.131997         0.041255         0.274831
 C        -0.688235         1.114628         0.614819
 C        -2.189509         0.948777         0.369197
 C        -1.541979         2.100384        -0.329624
 C        -1.210981         3.187808         0.709923
 C        -0.337100         4.260763         0.006175
 O         0.826921         4.371936         0.918668
 C         1.079193         3.036430         1.394458
 C        -0.266822         2.287669         1.577510
 H         0.619630        -0.331844         1.029828
 H        -2.469958         0.063229        -0.305114
 H        -3.079122         1.340567         1.066391
 H        -1.810183         2.271046        -1.395337
 H        -2.077914         3.800339         1.236117
 H        -0.084552         3.846397        -0.984571
 H        -0.771135         5.288707        -0.013453
 H         1.710629         2.479604         0.669951
 H         1.536857         3.131138         2.409167
 H        -0.446233         2.044657         2.590968
