19
Iteration:  4384
 O         0.146487         0.009775         0.205979
 C        -0.696161         1.168082         0.619534
 C        -2.226998         0.915279         0.421080
 C        -1.528394         2.149218        -0.334223
 C        -1.250676         3.175522         0.680972
 C        -0.286460         4.271886         0.085895
 O         0.839486         4.356522         0.860424
 C         1.052021         3.068182         1.413746
 C        -0.306800         2.331987         1.631383
 H         0.490070        -0.408248         0.956700
 H        -2.280852        -0.069913        -0.175059
 H        -3.047602         0.916988         1.259115
 H        -1.465774         2.331183        -1.442115
 H        -2.298506         3.492072         1.096794
 H         0.115566         3.898333        -0.853227
 H        -0.638308         5.160553        -0.315759
 H         1.668669         2.462850         0.698234
 H         1.729651         3.019248         2.349709
 H        -0.525272         2.162862         2.650565
