19
Iteration:  1956charge 0 multiplicity 1
 O         0.369591         0.376491         0.242640
 C        -0.701977         1.264023         0.706593
 C        -2.205995         1.000031         0.501698
 C        -1.478644         2.094643        -0.263620
 C        -1.295884         3.274796         0.824063
 C        -0.462514         4.333717         0.236826
 O         0.862969         3.758134         0.279674
 C         1.048242         2.938931         1.424210
 C        -0.391221         2.382932         1.691519
 H         0.390635        -0.490289         0.720912
 H        -2.470247         0.120816        -0.188287
 H        -2.957127         1.368674         1.187525
 H        -1.292427         2.103411        -1.338003
 H        -2.216835         3.384627         1.396423
 H        -0.766494         4.459043        -0.819611
 H        -0.501954         5.333897         0.635909
 H         1.679625         2.086121         1.146481
 H         1.552431         3.587095         2.217765
 H        -0.670388         2.200486         2.718148
