19
Iteration:  3448charge 0 multiplicity 1
 O         0.288558         0.253451         0.337844
 C        -0.735030         1.096814         0.699826
 C        -2.131301         0.888967         0.467646
 C        -1.625537         2.128320        -0.214028
 C        -1.324738         3.275133         0.703402
 C        -0.376738         4.275583         0.054502
 O         0.995554         4.106459         0.622606
 C         1.010672         2.933559         1.401224
 C        -0.411998         2.324055         1.583330
 H         0.984475         0.787708         0.095256
 H        -2.377430         0.195611        -0.376276
 H        -3.026752         0.801564         1.083751
 H        -1.447544         2.191511        -1.321506
 H        -2.229541         3.724219         1.236938
 H        -0.428679         4.172451        -1.071374
 H        -0.646393         5.225760         0.349170
 H         1.685745         2.267253         0.871917
 H         1.362040         3.272008         2.270416
 H        -0.675802         2.308673         2.653235
