19
Iteration:  1885
 O         0.344994         0.384070         0.105812
 C        -0.655683         1.174883         0.675994
 C        -2.129508         1.052553         0.683673
 C        -1.513172         2.077610        -0.248073
 C        -1.360979         3.263540         0.756076
 C        -0.391114         4.298737         0.252168
 O         0.925287         3.732919         0.319131
 C         0.926872         3.028158         1.467825
 C        -0.375741         2.361234         1.612400
 H         0.049445        -0.494930         0.570214
 H        -2.496845         0.277867         0.043955
 H        -2.794151         1.317637         1.502548
 H        -1.442699         1.986202        -1.333183
 H        -2.329503         3.687388         1.111418
 H        -0.587059         4.568448        -0.779869
 H        -0.391203         5.322958         0.729909
 H         1.876852         2.290702         1.301464
 H         1.083389         3.703610         2.419276
 H        -0.684723         2.159503         2.718476
