19
Iteration:  3070
 O         0.438351         0.437794         0.329591
 C        -0.742802         1.110370         0.666933
 C        -2.267813         0.919531         0.533250
 C        -1.554232         2.060290        -0.283512
 C        -1.322696         3.246228         0.592774
 C        -0.309803         4.402384         0.305739
 O         0.989115         3.872861         0.394198
 C         0.940179         2.988805         1.486460
 C        -0.451119         2.272151         1.604938
 H         0.385022         0.144488        -0.641057
 H        -2.639965         0.082044        -0.060495
 H        -2.816748         0.911542         1.455027
 H        -1.716860         1.889310        -1.354760
 H        -2.168784         3.687771         0.967030
 H        -0.417141         4.997261        -0.541493
 H        -0.492158         5.143759         1.137228
 H         1.693200         2.163290         1.129191
 H         1.323135         3.579871         2.312106
 H        -0.871255         2.207812         2.634869
