19
Iteration:  1973charge 0 multiplicity 1
 O         0.283723         0.319386         0.233517
 C        -0.667174         1.218267         0.717400
 C        -2.176995         1.032320         0.508671
 C        -1.412292         2.072926        -0.188991
 C        -1.400119         3.220235         0.705472
 C        -0.419141         4.352572         0.266318
 O         0.889551         3.812832         0.237485
 C         1.010861         3.018764         1.453370
 C        -0.353409         2.300801         1.670302
 H         0.241140        -0.553136         0.541980
 H        -2.424767         0.118181         0.037368
 H        -2.749285         1.345567         1.392653
 H        -1.353988         2.208507        -1.267214
 H        -2.312883         3.811121         0.946914
 H        -0.624723         4.845817        -0.712782
 H        -0.577916         5.123407         1.095166
 H         1.844440         2.261865         1.098652
 H         1.193235         3.509852         2.382475
 H        -0.377778         2.393016         2.842456
