19
Iteration:  4118charge 0 multiplicity 1
 O         0.182679         0.119078         0.146125
 C        -0.701098         1.093559         0.602177
 C        -2.162383         0.944518         0.604845
 C        -1.521253         1.969578        -0.369479
 C        -1.247464         3.265393         0.579517
 C        -0.225774         4.278753        -0.008352
 O         0.853796         4.345075         0.973495
 C         1.031507         3.039213         1.430509
 C        -0.390894         2.348088         1.555835
 H        -0.054326        -0.587477         0.668013
 H        -2.662638         0.010733         0.192579
 H        -2.699659         1.225682         1.598360
 H        -1.591086         1.954356        -1.485590
 H        -2.230959         3.555677         1.145133
 H         0.126089         3.656886        -0.764907
 H        -0.559699         5.233214        -0.216948
 H         1.598090         2.623609         0.707543
 H         1.545712         3.069084         2.462023
 H        -0.836658         2.351672         2.543698
