19
Iteration:  1013
 O         0.207059         0.276121         0.167573
 C        -0.693873         1.243313         0.594300
 C        -2.175015         0.830260         0.572905
 C        -1.699594         1.996576        -0.169946
 C        -1.344630         3.259026         0.779313
 C        -0.319596         4.318640         0.277388
 O         0.992814         3.919485         0.286187
 C         1.029583         3.134993         1.504301
 C        -0.228654         2.368159         1.564928
 H         0.367754        -0.312787         0.832840
 H        -2.359635         0.102657        -0.251805
 H        -2.872762         0.800790         1.305298
 H        -1.799772         2.106605        -1.257607
 H        -2.222091         3.526030         1.436108
 H        -0.529501         4.708002        -0.766365
 H        -0.365422         5.270966         0.903893
 H         1.885120         2.637666         1.599237
 H         0.991548         3.818995         2.434604
 H        -0.499023         2.172635         2.506602
