19
Iteration:  2017
 O         0.249562         0.118062         0.306547
 C        -0.650863         1.176669         0.580423
 C        -2.094964         0.926732         0.573223
 C        -1.666038         2.156660        -0.250120
 C        -1.371397         3.299985         0.663191
 C        -0.440062         4.427059         0.274011
 O         0.998034         3.962484         0.310042
 C         1.040872         3.082003         1.497117
 C        -0.290331         2.294179         1.576331
 H         0.042093        -0.483028         0.958102
 H        -2.352659         0.113765        -0.114935
 H        -2.821362         0.777157         1.381435
 H        -1.770971         2.075266        -1.338686
 H        -2.257651         3.802182         1.251349
 H        -0.537152         4.810002        -0.766416
 H        -0.532907         5.223520         1.047082
 H         1.936042         2.319085         1.233059
 H         1.137497         3.719383         2.363797
 H        -0.515604         1.770607         2.633983
