19
Iteration:   219charge 0 multiplicity 1
 O         0.311999         0.448239        -0.017581
 C        -0.629839         1.153782         0.716913
 C        -2.145692         0.958065         0.735545
 C        -1.518776         2.103611        -0.119899
 C        -1.349212         3.238988         0.755006
 C        -0.428641         4.360233         0.086783
 O         0.955759         3.712415         0.324341
 C         0.957067         3.053206         1.521090
 C        -0.392696         2.339744         1.671020
 H         0.441565        -0.541668         0.322551
 H        -2.562047         0.254184        -0.009529
 H        -2.641871         1.054516         1.666833
 H        -1.775601         2.016261        -1.224908
 H        -2.306754         3.693049         1.216662
 H        -0.583233         4.414328        -0.948214
 H        -0.447006         5.418453         0.581385
 H         1.776274         2.354517         1.463091
 H         1.014778         3.831285         2.384395
 H        -0.491694         2.216257         2.725092
