19
Iteration:  2920charge 0 multiplicity 1
 O         0.355118         0.319628         0.426080
 C        -0.707950         1.205885         0.557515
 C        -2.224774         0.825465         0.483926
 C        -1.653337         2.114934        -0.244372
 C        -1.373764         3.265767         0.759875
 C        -0.400638         4.331360         0.228808
 O         1.014174         3.938716         0.405060
 C         1.094195         3.006099         1.412338
 C        -0.399005         2.305296         1.598638
 H         0.475104         0.229145        -0.489949
 H        -2.477727        -0.018024        -0.202791
 H        -2.912891         1.138182         1.283540
 H        -1.689454         2.227880        -1.351711
 H        -2.350346         3.759829         1.238972
 H        -0.373668         4.446899        -0.914681
 H        -0.547089         5.303960         0.780296
 H         1.860831         2.346666         1.257451
 H         1.396918         3.472213         2.413143
 H        -0.692356         2.074822         2.628377
