19
Iteration:  2424charge 0 multiplicity 1
 O         0.252969         0.277472         0.191840
 C        -0.681174         1.214261         0.687260
 C        -2.174546         0.873035         0.641223
 C        -1.541152         2.005395        -0.231442
 C        -1.303287         3.288825         0.652616
 C        -0.377490         4.433829         0.260751
 O         0.936443         3.841556         0.281637
 C         0.999518         3.027842         1.469749
 C        -0.411537         2.351531         1.720441
 H         0.888764         0.550270        -0.579816
 H        -2.315528        -0.108845         0.126541
 H        -2.869889         1.201303         1.364915
 H        -1.451563         2.041738        -1.315534
 H        -2.358961         3.575981         1.056993
 H        -0.467151         4.895227        -0.682314
 H        -0.513262         5.234081         1.003397
 H         1.770039         2.131785         1.373348
 H         1.207707         3.680225         2.321734
 H        -0.438080         2.324013         2.838150
