19
Iteration:  2182charge 0 multiplicity 1
 O         0.353195         0.381600         0.238505
 C        -0.715394         1.201498         0.633988
 C        -2.158184         0.880253         0.540999
 C        -1.609695         2.120036        -0.157831
 C        -1.366000         3.248464         0.762990
 C        -0.406686         4.416971         0.165318
 O         1.000986         3.841031         0.289264
 C         1.008857         3.004979         1.501965
 C        -0.359362         2.286661         1.627293
 H         0.336864        -0.631714         0.460406
 H        -2.346696         0.061693        -0.133482
 H        -2.837853         0.955359         1.385958
 H        -1.883221         2.268127        -1.166049
 H        -2.237874         3.856606         1.251774
 H        -0.666011         4.658585        -0.890315
 H        -0.546471         5.341412         0.842475
 H         1.741678         2.093379         1.299459
 H         1.315060         3.597032         2.403846
 H        -0.647056         2.108050         2.691495
