19
Iteration:  4383
 O         0.144729         0.011349         0.212095
 C        -0.694697         1.165655         0.621524
 C        -2.232149         0.913585         0.419267
 C        -1.530268         2.157843        -0.338647
 C        -1.246126         3.167651         0.686013
 C        -0.293264         4.276162         0.079045
 O         0.836988         4.356384         0.863183
 C         1.052271         3.071788         1.411208
 C        -0.298984         2.329543         1.629878
 H         0.536356        -0.436918         0.986973
 H        -2.301670        -0.055369        -0.176251
 H        -3.019799         0.949680         1.189509
 H        -1.514093         2.326274        -1.444204
 H        -2.248317         3.501225         1.073351
 H         0.094172         3.912240        -0.860564
 H        -0.631188         5.147155        -0.313203
 H         1.676006         2.460274         0.709404
 H         1.725168         2.984361         2.369572
 H        -0.504451         2.129513         2.669834
