19
Iteration:  3108
 O         0.338186         0.250275         0.325097
 C        -0.627766         1.226419         0.607217
 C        -2.015421         0.991061         0.420987
 C        -1.588140         2.206487        -0.283503
 C        -1.339967         3.246753         0.739777
 C        -0.407614         4.299912         0.246318
 O         0.902975         3.759008         0.344503
 C         0.955304         3.097211         1.547098
 C        -0.449270         2.350078         1.666400
 H        -0.004652        -0.299275        -0.308404
 H        -2.039337         0.121293        -0.261641
 H        -2.644402         0.930279         1.351786
 H        -1.802275         2.517999        -1.322574
 H        -2.270116         3.644524         1.320442
 H        -0.539001         4.625303        -0.888323
 H        -0.469799         5.198209         0.908757
 H         1.688513         2.336765         1.395347
 H         1.218992         3.531010         2.569473
 H        -0.707402         2.001973         2.683536
