19
Iteration:  4924charge 0 multiplicity 1
 O         0.354391         0.239551         0.344618
 C        -0.605658         1.176197         0.611405
 C        -2.117311         0.938307         0.269802
 C        -1.474798         2.136595        -0.251217
 C        -1.352067         3.268380         0.786876
 C        -0.397657         4.393891         0.273679
 O         0.900209         3.775583         0.242169
 C         0.956793         3.138830         1.569277
 C        -0.434191         2.347862         1.743784
 H         0.120692        -0.723228         0.479654
 H        -2.289405         0.053582        -0.392048
 H        -2.902245         0.981110         1.109916
 H        -1.710862         2.441997        -1.262365
 H        -2.233509         3.626739         1.273313
 H        -0.786934         4.660877        -0.700701
 H        -0.466166         5.263532         0.896977
 H         1.742719         2.360701         1.462171
 H         0.957047         3.915321         2.372161
 H        -0.785933         2.147385         2.817085
