19
Iteration:  1243
 O         0.277765         0.186014         0.171188
 C        -0.678896         1.114952         0.672286
 C        -2.222025         0.949855         0.634677
 C        -1.505192         2.059243        -0.169466
 C        -1.252757         3.314380         0.663926
 C        -0.436117         4.425088         0.245028
 O         0.916004         3.995363         0.358434
 C         0.980356         2.997863         1.413372
 C        -0.274283         2.347638         1.575533
 H         0.105974        -0.722477         0.556289
 H        -2.457276         0.033753         0.038727
 H        -2.842434         1.106881         1.549211
 H        -1.753477         2.175651        -1.211227
 H        -2.145356         3.563591         1.171786
 H        -0.587974         4.713965        -0.880861
 H        -0.683993         5.212940         0.942986
 H         1.864467         2.392042         1.280177
 H         1.280482         3.498754         2.407194
 H        -0.598072         2.390571         2.730965
