19
Iteration:  1353
 O         0.372641         0.378095         0.233218
 C        -0.687170         1.260364         0.610059
 C        -2.152881         0.765317         0.464408
 C        -1.708671         2.097967        -0.131587
 C        -1.315997         3.385393         0.829217
 C        -0.337011         4.389248         0.263792
 O         0.920192         3.706290         0.166598
 C         1.040107         3.008771         1.492434
 C        -0.410632         2.406088         1.680828
 H         0.361238        -0.335757         0.790964
 H        -2.122862        -0.114882        -0.262196
 H        -2.921588         0.628672         1.303348
 H        -1.866946         2.331996        -1.173801
 H        -2.172046         3.847240         1.254198
 H        -0.415324         4.910584        -0.770601
 H        -0.252260         5.217740         0.959143
 H         1.820000         2.266411         1.445483
 H         1.107899         3.804304         2.251852
 H        -0.743563         2.108138         2.776345
