19
Iteration:  1222charge 0 multiplicity 1
 O         0.250814         0.202976         0.208530
 C        -0.650001         1.167374         0.661498
 C        -2.149746         1.060114         0.604669
 C        -1.473285         2.058644        -0.248832
 C        -1.356324         3.199523         0.794709
 C        -0.498482         4.368859         0.234304
 O         0.922267         4.056851         0.353773
 C         1.083996         3.025211         1.380181
 C        -0.323305         2.267280         1.616560
 H         0.021867        -0.715676         0.681971
 H        -2.802365         0.279009         0.143670
 H        -2.624379         1.625541         1.452697
 H        -1.347316         2.030284        -1.308506
 H        -2.375056         3.342944         1.177427
 H        -0.665805         4.370194        -0.961789
 H        -0.574672         5.352712         0.710102
 H         1.832759         2.339579         1.081446
 H         1.541914         3.325599         2.363384
 H        -0.755586         1.909204         2.633923
