19
Iteration:  4687
 O         0.210994         0.029225         0.346576
 C        -0.680547         1.120458         0.584089
 C        -2.189957         0.959725         0.575924
 C        -1.543294         2.014301        -0.288368
 C        -1.314341         3.213489         0.626331
 C        -0.276000         4.275138         0.028591
 O         0.811794         4.396826         0.966470
 C         1.068620         3.021557         1.286182
 C        -0.324173         2.295134         1.486725
 H        -0.125135        -0.394270        -0.402992
 H        -2.594584         0.123175         0.092378
 H        -2.676900         1.221148         1.518112
 H        -1.577514         2.039515        -1.350537
 H        -2.201053         3.791483         1.025088
 H         0.086058         4.063707        -1.020245
 H        -0.660088         5.298551        -0.190695
 H         1.752501         2.657029         0.418897
 H         1.694998         3.100259         2.269111
 H        -0.341716         2.265938         2.559383
