19
Iteration:  3472charge 0 multiplicity 1
 O         0.178293         0.074591         0.365206
 C        -0.654313         1.226787         0.525827
 C        -2.106254         0.919694         0.491907
 C        -1.576364         2.122303        -0.300118
 C        -1.291890         3.280851         0.761175
 C        -0.389122         4.290095         0.085797
 O         0.904135         4.157473         0.639606
 C         1.037927         2.970651         1.432225
 C        -0.387262         2.377587         1.624379
 H         1.170293         0.199292         0.104394
 H        -2.112273        -0.017646        -0.108076
 H        -2.954912         0.812198         1.225896
 H        -1.693816         2.181341        -1.409615
 H        -2.184448         3.680711         1.188700
 H        -0.409078         3.936109        -1.005244
 H        -0.715022         5.279564         0.201703
 H         1.730646         2.322100         0.847389
 H         1.481926         3.350694         2.275862
 H        -0.621446         2.067600         2.656590
