19
Iteration:   413charge 0 multiplicity 1
 O         0.350795         0.285575         0.185751
 C        -0.633632         1.158205         0.618572
 C        -2.192477         0.942838         0.707107
 C        -1.517085         2.062406        -0.170813
 C        -1.338721         3.281735         0.765868
 C        -0.363126         4.405309         0.302754
 O         0.922451         3.906928         0.245270
 C         0.948552         3.022398         1.398075
 C        -0.419755         2.312951         1.539230
 H         0.105980        -0.545692         0.408835
 H        -2.472725         0.113460         0.123070
 H        -2.805564         1.267281         1.510124
 H        -1.590750         2.042435        -1.271263
 H        -2.151557         3.518082         1.344330
 H        -0.612314         4.781188        -0.712681
 H        -0.420011         5.200387         1.091082
 H         1.761959         2.368187         1.278423
 H         1.247024         3.625874         2.309520
 H        -0.623997         2.094060         2.574203
