19
Iteration:  2169
 O         0.297729         0.370382         0.151234
 C        -0.651099         1.198721         0.743327
 C        -2.151913         0.828918         0.462920
 C        -1.598666         2.083335        -0.172687
 C        -1.398495         3.334481         0.838957
 C        -0.357040         4.295288         0.214176
 O         1.007191         3.876143         0.226970
 C         0.991487         2.990261         1.482440
 C        -0.422807         2.411828         1.697602
 H         0.002940        -0.420440         0.466646
 H        -2.191273        -0.179812        -0.070538
 H        -2.889684         0.905806         1.292944
 H        -1.352646         2.182984        -1.209058
 H        -2.402772         3.612844         1.399057
 H        -0.566588         4.588829        -0.848790
 H        -0.282794         5.315508         0.795300
 H         1.874718         2.328998         1.278146
 H         1.229568         3.603931         2.394041
 H        -0.624788         2.181591         2.733883
