19
Iteration:  1186
 O         0.247356         0.196093         0.288656
 C        -0.675592         1.099016         0.677144
 C        -2.128127         0.817224         0.482835
 C        -1.644537         2.107489        -0.155334
 C        -1.309413         3.333058         0.765975
 C        -0.373364         4.501730         0.314801
 O         0.985104         4.018460         0.260941
 C         1.023202         2.988637         1.368730
 C        -0.380927         2.307321         1.589913
 H         0.305818        -0.574554         0.994885
 H        -2.282065         0.127989        -0.305396
 H        -2.807136         0.741312         1.315285
 H        -1.682229         2.176389        -1.294157
 H        -2.061371         3.715710         1.364830
 H        -0.665011         4.768173        -0.712823
 H        -0.560508         5.330701         0.956210
 H         1.756973         2.286692         0.931560
 H         1.454573         3.524584         2.224389
 H        -0.701098         2.392018         2.689614
