19
Iteration:  3675
 O         0.172760         0.023945         0.301435
 C        -0.691706         1.164398         0.565168
 C        -2.175656         0.913651         0.571342
 C        -1.591661         2.029614        -0.327171
 C        -1.327783         3.179751         0.655467
 C        -0.286394         4.274903         0.020846
 O         0.843920         4.390252         0.863130
 C         1.096379         3.008055         1.387330
 C        -0.255501         2.354180         1.589969
 H        -0.264226        -0.423621        -0.506229
 H        -2.375153         0.004303         0.091541
 H        -2.863817         1.271920         1.273595
 H        -1.581785         2.207338        -1.408785
 H        -2.146313         3.748631         0.958907
 H         0.138611         3.879310        -0.967028
 H        -0.618009         5.452260         0.057054
 H         2.007422         2.469734         0.744548
 H         1.427065         3.296342         2.457356
 H        -0.596420         2.153544         2.626409
