19
Iteration:  3303
 O         0.438556         0.406671         0.427103
 C        -0.688962         1.209623         0.585600
 C        -2.185408         0.877567         0.491613
 C        -1.679232         2.075727        -0.326489
 C        -1.353373         3.233734         0.684282
 C        -0.344588         4.385983         0.349949
 O         1.028291         3.855394         0.312841
 C         0.942955         2.943760         1.501024
 C        -0.498104         2.332564         1.567887
 H         0.813270         0.565803        -0.410266
 H        -2.349115        -0.105274         0.025392
 H        -2.867557         0.931384         1.363775
 H        -1.519529         1.974895        -1.405421
 H        -2.329067         3.751203         1.115450
 H        -0.574464         4.848294        -0.659037
 H        -0.479552         5.228017         1.058463
 H         1.681500         1.979385         1.251885
 H         1.265526         3.444811         2.426909
 H        -0.814802         2.254499         2.642209
