19
Iteration:  4576charge 0 multiplicity 1
 O         0.196502         0.171279         0.317918
 C        -0.691699         1.130026         0.679932
 C        -2.159353         0.874945         0.491144
 C        -1.623030         2.075501        -0.304365
 C        -1.264412         3.203606         0.583259
 C        -0.295674         4.301868         0.089447
 O         0.899850         4.273384         0.845621
 C         1.031980         2.947578         1.288503
 C        -0.366086         2.306567         1.565152
 H         1.050624         0.317692         0.892952
 H        -2.422603         0.023032        -0.206565
 H        -2.925333         1.240821         1.147423
 H        -1.432977         2.130078        -1.421630
 H        -2.186611         3.632703         1.143731
 H        -0.172351         4.201478        -1.010198
 H        -0.911160         5.227752         0.328233
 H         1.480644         2.439406         0.414507
 H         1.565430         2.941638         2.232961
 H        -0.562944         2.428019         2.654938
