19
Iteration:   991charge 0 multiplicity 1
 O         0.292573         0.186451         0.226632
 C        -0.663248         1.145064         0.589294
 C        -2.119715         0.961973         0.482870
 C        -1.602619         2.174033        -0.156101
 C        -1.264821         3.267976         0.878560
 C        -0.486527         4.398093         0.199910
 O         0.930441         3.869264         0.233969
 C         1.027567         3.081847         1.465627
 C        -0.360201         2.296256         1.650878
 H         0.472825        -0.504534         1.002261
 H        -2.257841         0.097719        -0.193487
 H        -2.710092         0.934653         1.325405
 H        -1.795293         2.580481        -1.136545
 H        -2.158409         3.743467         1.403647
 H        -0.792495         4.662393        -0.860112
 H        -0.498604         5.381398         0.771664
 H         1.807730         2.453812         1.401305
 H         1.157258         3.596313         2.445231
 H        -0.545916         2.029743         2.619644
