19
Iteration:  2760charge 0 multiplicity 1
 O         0.326207         0.107870         0.323945
 C        -0.620455         1.167514         0.588196
 C        -2.190572         0.957699         0.590301
 C        -1.551710         2.063120        -0.234198
 C        -1.370060         3.285333         0.748299
 C        -0.444954         4.403828         0.252786
 O         0.966745         3.871112         0.290175
 C         0.965798         3.082319         1.486850
 C        -0.342418         2.399342         1.595198
 H         0.502120         0.336972        -0.543008
 H        -2.593571         0.177377        -0.094581
 H        -2.852875         1.135292         1.494322
 H        -1.809557         2.092314        -1.321485
 H        -2.294161         3.619319         1.134724
 H        -0.575440         4.768183        -0.751354
 H        -0.480272         5.287567         0.982496
 H         2.054301         2.488978         1.469855
 H         1.091909         3.821679         2.332289
 H        -0.462886         2.061654         2.635138
