19
Iteration:  4144
 O         0.167787         0.191077         0.189449
 C        -0.727344         1.140740         0.708267
 C        -2.214589         0.954922         0.446301
 C        -1.561529         2.047037        -0.269881
 C        -1.196511         3.287866         0.620414
 C        -0.234233         4.129807        -0.022629
 O         0.765262         4.324582         0.951174
 C         1.054879         2.992012         1.382592
 C        -0.275655         2.308363         1.598748
 H         0.424701        -0.265096         0.939416
 H        -2.310360         0.170322        -0.300556
 H        -3.168401         0.848742         1.083557
 H        -1.526022         1.999570        -1.347814
 H        -2.014684         3.804156         1.108506
 H         0.183399         3.596728        -0.967884
 H        -0.751173         5.137707        -0.252535
 H         1.664466         2.580010         0.473565
 H         1.563544         3.040661         2.285995
 H        -0.532181         2.296733         2.674904
