19
Iteration:  4410
 O         0.200382         0.208128         0.162425
 C        -0.685584         1.140425         0.678218
 C        -2.153021         0.864391         0.559633
 C        -1.517236         2.034502        -0.292786
 C        -1.232223         3.241258         0.581474
 C        -0.279767         4.285555        -0.012153
 O         0.835783         4.285711         0.957676
 C         1.016625         2.945404         1.421119
 C        -0.362343         2.360262         1.521476
 H         0.111860        -0.673690         0.570481
 H        -2.549180         0.059875        -0.027209
 H        -2.952731         1.287026         1.340439
 H        -1.751334         2.000005        -1.345181
 H        -2.175500         3.769106         1.004702
 H         0.173885         4.067900        -1.026463
 H        -0.731341         5.367081        -0.106998
 H         1.671811         2.416616         0.702700
 H         1.423357         2.894859         2.392655
 H        -0.626439         2.235459         2.599187
