19
Iteration:  1030charge 0 multiplicity 1
 O         0.253822         0.302418         0.036366
 C        -0.680595         1.187741         0.672748
 C        -2.141874         0.866143         0.688398
 C        -1.616099         2.069402        -0.201610
 C        -1.302971         3.224164         0.677110
 C        -0.404846         4.379123         0.225461
 O         1.026583         3.880124         0.340212
 C         1.016224         3.101349         1.533699
 C        -0.396685         2.353588         1.605072
 H         0.359935        -0.415208         0.579743
 H        -2.428626        -0.143920         0.390675
 H        -2.791088         1.156770         1.621399
 H        -1.764516         2.025661        -1.254595
 H        -2.172250         3.710119         1.119962
 H        -0.563630         4.791958        -0.746548
 H        -0.599487         5.162252         0.960549
 H         1.929361         2.339088         1.331649
 H         1.195872         3.855914         2.289022
 H        -0.714829         2.192356         2.750343
