19
Iteration:  3598
 O         0.173993         0.157880         0.391368
 C        -0.765797         1.168242         0.710132
 C        -2.181756         0.870292         0.445530
 C        -1.617226         2.089384        -0.253871
 C        -1.267710         3.236042         0.647748
 C        -0.276492         4.260154         0.008994
 O         0.816549         4.296755         0.936270
 C         1.099767         2.916423         1.116820
 C        -0.336970         2.334880         1.550306
 H         1.101453         0.384734         0.738961
 H        -2.287028        -0.009391        -0.168828
 H        -2.771725         0.952032         1.308421
 H        -1.588176         1.952424        -1.339893
 H        -2.049934         3.796547         1.056905
 H         0.165850         4.081202        -0.978583
 H        -0.825290         5.306926        -0.114055
 H         1.785123         2.610862         0.379478
 H         1.778433         2.720203         2.029254
 H        -0.409647         2.207859         2.654803
