19
Iteration:  3727charge 0 multiplicity 1
 O         0.294722         0.342452         0.231369
 C        -0.726901         1.166903         0.609139
 C        -2.231237         0.949246         0.570629
 C        -1.647452         1.919522        -0.318990
 C        -1.316671         3.264710         0.596316
 C        -0.260544         4.197615         0.022879
 O         0.906724         4.234698         0.989308
 C         1.075329         2.889115         1.321504
 C        -0.365386         2.382577         1.491704
 H         0.561277        -0.177810         0.959333
 H        -2.482104        -0.051642         0.159189
 H        -2.893729         1.114989         1.484475
 H        -1.914861         1.884549        -1.373715
 H        -2.078327         3.944961         1.178129
 H         0.101544         3.772251        -0.900918
 H        -0.430863         5.304919        -0.190521
 H         1.402467         2.389235         0.453206
 H         1.675154         2.908465         2.210988
 H        -0.879728         2.228623         2.479521
