19
Iteration:  2790
 O         0.367617         0.384222         0.331580
 C        -0.707042         1.256920         0.661383
 C        -2.167741         0.898911         0.562430
 C        -1.546483         2.051204        -0.264065
 C        -1.328393         3.248961         0.741762
 C        -0.464085         4.360628         0.195911
 O         0.949199         3.909835         0.367201
 C         1.035889         2.911661         1.412754
 C        -0.379126         2.353218         1.667003
 H        -0.152545        -0.316568        -0.218126
 H        -2.477727         0.077587        -0.099479
 H        -2.963166         1.077769         1.363770
 H        -1.565234         2.088106        -1.370748
 H        -2.244447         3.621182         1.194653
 H        -0.534738         4.626279        -0.937732
 H        -0.514750         5.321865         0.644225
 H         1.831578         2.165582         0.994746
 H         1.301560         3.445121         2.282140
 H        -0.448668         1.989634         2.739924
