19
Iteration:  1272
 O         0.242477         0.289895         0.221368
 C        -0.675295         1.301132         0.563186
 C        -2.100335         0.779874         0.569772
 C        -1.733351         2.035946        -0.256936
 C        -1.333478         3.272821         0.793448
 C        -0.287096         4.353378         0.282614
 O         1.016419         3.882452         0.255073
 C         0.977028         3.100590         1.429869
 C        -0.385369         2.387091         1.664501
 H         0.195030        -0.311562         0.882103
 H        -2.076398        -0.154637         0.120532
 H        -2.659511         0.873141         1.462610
 H        -1.914472         2.215414        -1.366769
 H        -2.230669         3.691812         1.291199
 H        -0.484491         4.711309        -0.635002
 H        -0.326717         5.109541         1.161847
 H         1.761963         2.305261         1.445999
 H         1.297009         3.646384         2.286833
 H        -0.637913         2.162436         2.647820
