19
Iteration:   465
 O         0.285627         0.332829         0.065257
 C        -0.647327         1.170257         0.601942
 C        -2.095341         0.888599         0.627614
 C        -1.586967         2.161914        -0.106539
 C        -1.313313         3.350252         0.835854
 C        -0.437319         4.259213         0.071677
 O         0.951599         3.879749         0.330902
 C         0.960658         2.982710         1.519387
 C        -0.355033         2.342713         1.678873
 H         0.327348        -0.454018         0.618910
 H        -2.543082         0.112910        -0.025738
 H        -2.497077         0.912546         1.674345
 H        -1.837266         2.145668        -1.204937
 H        -2.242459         3.819431         1.294159
 H        -0.659442         4.357014        -1.057820
 H        -0.512201         5.320459         0.412113
 H         1.873326         2.403603         1.529984
 H         1.022294         3.680564         2.402977
 H        -0.417370         2.208087         2.754561
