19
Iteration:   198charge 0 multiplicity 1
 O         0.346399         0.512679         0.046377
 C        -0.703850         1.214791         0.724119
 C        -2.195657         0.712513         0.656263
 C        -1.678909         2.064101        -0.101485
 C        -1.302018         3.314617         0.761755
 C        -0.275641         4.328138         0.203960
 O         0.955523         3.748038         0.197205
 C         0.991233         3.031167         1.520517
 C        -0.416882         2.408888         1.658920
 H         0.375685        -0.304379         0.438320
 H        -2.314627        -0.247322         0.092223
 H        -2.890909         0.928887         1.442116
 H        -1.540942         2.023806        -1.229241
 H        -2.162127         3.916406         1.211721
 H        -0.607073         4.639697        -0.750972
 H        -0.320381         5.171416         0.981017
 H         1.834983         2.354080         1.413641
 H         1.092999         3.876209         2.215301
 H        -0.704471         2.353830         2.679833
