19
Iteration:  4145charge 0 multiplicity 1
 O         0.169442         0.195933         0.194144
 C        -0.733703         1.138633         0.712027
 C        -2.216492         0.951131         0.443667
 C        -1.564061         2.054453        -0.274434
 C        -1.193620         3.288477         0.620978
 C        -0.239111         4.128319        -0.020930
 O         0.769068         4.322209         0.954986
 C         1.059336         2.995701         1.381135
 C        -0.283407         2.304570         1.594461
 H         0.434011        -0.237370         0.946941
 H        -2.322521         0.159076        -0.282905
 H        -3.121254         0.820860         1.056919
 H        -1.529519         2.019447        -1.348252
 H        -2.006799         3.730484         1.143926
 H         0.162626         3.568037        -0.996884
 H        -0.719541         5.191136        -0.294453
 H         1.694623         2.546501         0.439248
 H         1.577185         3.058644         2.283795
 H        -0.530638         2.306894         2.696130
