19
Iteration:   348charge 0 multiplicity 1
 O         0.338274         0.213861         0.376676
 C        -0.737234         1.082886         0.682423
 C        -2.196555         0.867491         0.368308
 C        -1.588693         2.184787        -0.118149
 C        -1.281845         3.267992         0.841861
 C        -0.403310         4.491968         0.367110
 O         0.850139         3.865914         0.143830
 C         1.047951         3.069196         1.278446
 C        -0.323512         2.302795         1.626057
 H         0.413781        -0.411437         1.147023
 H        -2.386421         0.403763        -0.585273
 H        -2.935686         0.660617         1.082078
 H        -1.338219         2.326330        -1.222009
 H        -2.115099         3.671677         1.423914
 H        -0.579293         5.151984        -0.474847
 H        -0.383988         5.108650         1.260617
 H         1.854899         2.449734         1.050826
 H         1.311310         3.650585         2.118615
 H        -0.450446         2.274268         2.801506
