19
Iteration:   969
 O         0.330075         0.277544         0.226800
 C        -0.645486         1.227838         0.664715
 C        -2.114456         0.993299         0.551538
 C        -1.397363         2.141002        -0.219458
 C        -1.373138         3.281048         0.808480
 C        -0.473912         4.378235         0.326499
 O         0.802631         3.788125         0.267770
 C         1.039733         2.964936         1.317942
 C        -0.389926         2.349133         1.672626
 H         0.065410        -0.493277         0.733732
 H        -2.449431         0.153186        -0.054982
 H        -2.742955         1.371966         1.278584
 H        -1.221890         2.148448        -1.280575
 H        -2.313523         3.735737         1.225917
 H        -0.708378         4.623330        -0.754604
 H        -0.575947         5.336218         0.923413
 H         1.709554         2.256070         1.080403
 H         1.409948         3.397683         2.259123
 H        -0.430686         2.165945         2.694084
