19
Iteration:  2307
 O         0.356667         0.326988         0.292321
 C        -0.638529         1.216763         0.571477
 C        -2.116699         0.919278         0.554537
 C        -1.552688         2.112584        -0.218602
 C        -1.362579         3.279048         0.721517
 C        -0.346281         4.397003         0.343531
 O         0.891552         3.831466         0.243669
 C         0.979018         2.932577         1.399799
 C        -0.435702         2.374302         1.644391
 H         0.228734        -0.463729         0.965600
 H        -2.358909         0.073043        -0.156192
 H        -2.691699         0.993564         1.444623
 H        -1.928128         2.144490        -1.237043
 H        -2.203784         3.769727         1.089771
 H        -0.589568         4.968168        -0.564517
 H        -0.382948         5.178987         1.180371
 H         1.703968         2.215475         1.158171
 H         1.324636         3.601570         2.243191
 H        -0.776804         1.979682         2.583086
