19
Iteration:  1755
 O         0.323962         0.243216         0.311708
 C        -0.726859         1.171364         0.703383
 C        -2.096636         0.908313         0.409106
 C        -1.600067         2.204347        -0.174025
 C        -1.337072         3.273901         0.856515
 C        -0.401836         4.398416         0.354747
 O         0.996325         3.810501         0.151538
 C         0.950790         2.998482         1.381507
 C        -0.393082         2.389677         1.618918
 H         0.223220        -0.503473         0.847279
 H        -2.252668         0.180330        -0.408392
 H        -2.926311         0.904958         1.036597
 H        -1.593088         2.371565        -1.239924
 H        -2.214658         3.746961         1.421575
 H        -0.586710         4.695129        -0.673606
 H        -0.532068         5.238658         1.095486
 H         1.961473         2.464093         1.280499
 H         1.163868         3.603900         2.205446
 H        -0.496902         2.075546         2.706004
