19
Iteration:  3958charge 0 multiplicity 1
 O         0.184766         0.021177         0.251516
 C        -0.695107         1.132853         0.618060
 C        -2.223179         1.025772         0.495031
 C        -1.432484         1.957244        -0.350407
 C        -1.287230         3.203563         0.556697
 C        -0.390581         4.377113         0.152165
 O         0.962567         4.288443         0.831585
 C         1.048235         3.001260         1.384079
 C        -0.374135         2.346566         1.557183
 H         0.416171        -0.325033         1.060693
 H        -2.521285         0.038409         0.059546
 H        -2.971580         1.419404         1.235845
 H        -1.309288         2.012183        -1.445860
 H        -2.275296         3.574648         0.868025
 H        -0.280233         4.484430        -0.961592
 H        -0.930124         5.199136         0.735839
 H         1.671034         2.478886         0.710767
 H         1.396868         3.252574         2.329016
 H        -0.687125         2.157339         2.625715
