19
Iteration:   924charge 0 multiplicity 1
 O         0.381756         0.271077         0.429362
 C        -0.693342         1.129846         0.639539
 C        -2.182652         0.819511         0.446517
 C        -1.601543         2.175322        -0.190871
 C        -1.412639         3.326347         0.797677
 C        -0.353211         4.511768         0.376047
 O         0.920539         3.889570         0.198604
 C         1.026939         2.963274         1.282687
 C        -0.367475         2.316978         1.563253
 H         0.172876        -0.620367         0.554590
 H        -2.307440        -0.033497        -0.164583
 H        -2.721265         0.789406         1.414104
 H        -1.711885         2.304668        -1.259669
 H        -2.367387         3.702858         1.316401
 H        -0.622155         5.135911        -0.498649
 H        -0.403990         5.223537         1.281817
 H         1.786322         2.232469         1.068810
 H         1.471032         3.423929         2.175651
 H        -0.512715         2.130355         2.571710
