19
Iteration:  1324charge 0 multiplicity 1
 O         0.354907         0.520966         0.130554
 C        -0.618056         1.271603         0.738393
 C        -2.143081         0.985037         0.526996
 C        -1.478996         2.106266        -0.141254
 C        -1.336454         3.294167         0.841192
 C        -0.466513         4.259693         0.201580
 O         0.909023         3.644753         0.128978
 C         0.963838         2.921271         1.507616
 C        -0.437998         2.387847         1.739252
 H         0.351679        -0.394925         0.466912
 H        -2.194170         0.110841        -0.076597
 H        -2.967905         1.191655         1.249009
 H        -1.178039         2.251093        -1.223245
 H        -2.363462         3.613498         1.289650
 H        -0.711613         4.596132        -0.882700
 H        -0.441801         5.176245         0.868051
 H         1.667762         2.042752         1.519880
 H         1.142940         3.671477         2.328069
 H        -0.707352         2.154499         2.824158
