19
Iteration:  4457charge 0 multiplicity 1
 O         0.331538         0.280421         0.340706
 C        -0.704532         1.154467         0.564264
 C        -2.185196         0.916957         0.635238
 C        -1.672330         2.084478        -0.292206
 C        -1.289118         3.254117         0.564795
 C        -0.189295         4.235487         0.021272
 O         0.795958         4.278389         1.005200
 C         1.045931         2.877093         1.320874
 C        -0.409248         2.306940         1.422772
 H         0.245109        -0.253789        -0.396126
 H        -2.281833        -0.038507         0.072991
 H        -2.673341         0.881873         1.538088
 H        -1.982536         1.999202        -1.366818
 H        -2.021754         3.783830         1.087632
 H         0.216885         3.697358        -0.945139
 H        -0.320553         5.322545        -0.289604
 H         1.618114         2.309015         0.534595
 H         1.444824         2.927699         2.386257
 H        -0.833364         2.267257         2.519367
