19
Iteration:  3642
 O         0.206458        -0.006989         0.324000
 C        -0.709675         1.059989         0.607632
 C        -2.193634         0.998022         0.685450
 C        -1.517469         1.973530        -0.343886
 C        -1.211193         3.217530         0.544477
 C        -0.319820         4.372681         0.054288
 O         0.822129         4.381499         0.898050
 C         1.037789         2.942994         1.328195
 C        -0.332673         2.322564         1.495840
 H         0.656829         0.193361        -0.597599
 H        -2.635590         0.229903         0.105733
 H        -2.787300         1.421770         1.441697
 H        -1.881693         2.144827        -1.358645
 H        -2.082935         3.607091         0.959491
 H        -0.150064         4.334101        -1.064325
 H        -0.741797         5.486779         0.156813
 H         1.857563         2.229181         0.923857
 H         1.516561         3.160655         2.355960
 H        -0.642181         2.325838         2.575748
