19
Iteration:   483charge 0 multiplicity 1
 O         0.364217         0.440131         0.012303
 C        -0.628776         1.201765         0.672032
 C        -2.199965         1.016022         0.728160
 C        -1.573267         2.053269        -0.127044
 C        -1.306361         3.220250         0.796784
 C        -0.397228         4.332873         0.088950
 O         0.893062         3.771240         0.319644
 C         0.959024         3.058623         1.540193
 C        -0.341010         2.270334         1.664251
 H         0.425296        -0.424356         0.435712
 H        -2.492024         0.181987         0.012059
 H        -2.875379         1.415680         1.517035
 H        -1.563137         2.196748        -1.234046
 H        -2.288250         3.687540         1.229178
 H        -0.481979         4.259502        -0.973957
 H        -0.638053         5.353069         0.379921
 H         1.808859         2.306605         1.297702
 H         1.311047         3.567492         2.423433
 H        -0.856421         2.011199         2.727843
