19
Iteration:  3458charge 0 multiplicity 1
 O         0.247071         0.170221         0.356062
 C        -0.658305         1.179244         0.670161
 C        -2.182185         0.839847         0.367161
 C        -1.596426         2.111128        -0.194957
 C        -1.318742         3.283580         0.737523
 C        -0.380447         4.327292         0.015805
 O         0.917536         4.118786         0.611418
 C         1.023123         2.929400         1.434095
 C        -0.359172         2.350747         1.618740
 H         1.037379         0.630260         0.132236
 H        -2.390186         0.005534        -0.338831
 H        -2.722697         1.023290         1.254141
 H        -1.747481         2.379292        -1.264006
 H        -2.182163         3.798946         1.341474
 H        -0.283433         4.175555        -1.088450
 H        -0.653241         5.347877         0.187283
 H         1.670682         2.210741         1.025005
 H         1.556873         3.071638         2.316025
 H        -0.648589         2.251717         2.679538
