19
Iteration:  1173
 O         0.376454         0.214193         0.281094
 C        -0.761821         1.155465         0.660904
 C        -2.191917         0.835407         0.523730
 C        -1.554871         2.114814        -0.169007
 C        -1.379791         3.320601         0.802864
 C        -0.403116         4.466605         0.317610
 O         0.999405         3.960813         0.235524
 C         1.035561         2.951468         1.325304
 C        -0.392224         2.394981         1.581381
 H         0.273784        -0.479393         0.854665
 H        -2.470978        -0.046756        -0.117095
 H        -2.925016         0.874598         1.315948
 H        -1.678349         2.210800        -1.267812
 H        -2.382910         3.682764         1.137943
 H        -0.629968         5.029444        -0.540271
 H        -0.343332         5.265397         1.091442
 H         1.833582         2.092958         1.262295
 H         1.114376         3.461698         2.314173
 H        -0.409816         2.013980         2.651838
