19
Iteration:  3122
 O         0.306155         0.220693         0.333899
 C        -0.568503         1.302427         0.553429
 C        -2.043364         0.844301         0.334997
 C        -1.589694         2.203805        -0.200039
 C        -1.377181         3.308382         0.827347
 C        -0.418764         4.351677         0.220248
 O         0.919184         3.781414         0.294367
 C         0.979032         3.028836         1.619256
 C        -0.360361         2.366860         1.678245
 H        -0.310304        -0.557813        -0.015334
 H        -2.185186         0.115018        -0.488919
 H        -2.916021         0.757890         0.996237
 H        -1.681701         2.410956        -1.310879
 H        -2.385559         3.863513         1.219202
 H        -0.624632         4.571843        -0.833113
 H        -0.472322         5.284339         0.861160
 H         1.811089         2.410157         1.657847
 H         1.033838         3.899115         2.279366
 H        -0.708071         2.105623         2.676190
