19
Iteration:  3961
 O         0.191615         0.031371         0.255348
 C        -0.703560         1.123636         0.586940
 C        -2.222705         1.016628         0.530345
 C        -1.429038         1.982568        -0.345914
 C        -1.275326         3.210152         0.543214
 C        -0.379445         4.380980         0.155502
 O         0.928802         4.274429         0.839621
 C         1.066855         2.981864         1.386095
 C        -0.389848         2.349720         1.530761
 H         0.493637        -0.346476         1.168748
 H        -2.460867         0.066964         0.177591
 H        -2.935599         1.476389         1.112499
 H        -1.326662         1.937708        -1.444505
 H        -2.350656         3.549547         0.893028
 H        -0.391915         4.573416        -0.933754
 H        -0.845357         5.276320         0.680861
 H         1.749413         2.383921         0.770036
 H         1.501320         3.267273         2.362820
 H        -0.752112         2.153512         2.550501
