19
Iteration:   675charge 0 multiplicity 1
 O         0.191842         0.224644         0.141688
 C        -0.616253         1.176884         0.749530
 C        -2.170475         0.811487         0.516095
 C        -1.428464         2.031655        -0.094267
 C        -1.321294         3.353958         0.753570
 C        -0.432981         4.442727         0.231736
 O         0.886714         3.964000         0.316833
 C         1.072164         2.948867         1.295638
 C        -0.378998         2.434794         1.738473
 H         0.206835        -0.481524         0.878925
 H        -2.462287         0.021834        -0.171350
 H        -2.972407         0.922940         1.191257
 H        -1.458233         2.127124        -1.243306
 H        -2.219820         3.872345         1.071611
 H        -0.517837         4.922772        -0.804379
 H        -0.672778         5.264044         0.973044
 H         1.655227         2.139778         0.886370
 H         1.560786         3.361569         2.263947
 H        -0.450227         2.202456         2.815749
