19
Iteration:  2858charge 0 multiplicity 1
 O         0.292305         0.215112         0.183280
 C        -0.604609         1.223404         0.629604
 C        -2.163495         1.047488         0.500926
 C        -1.545083         2.096687        -0.264346
 C        -1.293702         3.190718         0.706487
 C        -0.453513         4.312763         0.358658
 O         0.922745         3.722153         0.256193
 C         0.966534         3.154047         1.519335
 C        -0.359159         2.386499         1.689781
 H         1.030060         0.086888         0.686457
 H        -2.625496         0.154110         0.009679
 H        -2.856816         1.341153         1.339923
 H        -1.609673         2.058626        -1.344375
 H        -2.165489         3.591479         1.119531
 H        -0.797265         4.705317        -0.623180
 H        -0.629543         5.103299         1.060712
 H         1.926030         2.458530         1.546959
 H         1.025023         3.996917         2.202452
 H        -0.688316         2.330190         2.765818
