19
Iteration:  2842charge 0 multiplicity 1
 O         0.306473         0.294029         0.223867
 C        -0.702094         1.165686         0.631223
 C        -2.164826         0.922042         0.539587
 C        -1.520166         2.112386        -0.235219
 C        -1.370850         3.280005         0.773909
 C        -0.383794         4.359879         0.258723
 O         0.902971         3.799114         0.255231
 C         1.008229         3.063093         1.510691
 C        -0.376359         2.299827         1.584042
 H         0.791720         0.187654         1.038623
 H        -2.327505         0.052954        -0.067124
 H        -2.814468         1.154354         1.383755
 H        -1.465374         2.293827        -1.318440
 H        -2.381856         3.644517         1.305514
 H        -0.465550         4.814333        -0.774911
 H        -0.284237         5.260797         0.983510
 H         1.903463         2.548082         1.414766
 H         1.070805         3.820370         2.478676
 H        -0.652264         2.062052         2.613987
