19
Iteration:  4064
 O         0.267041         0.150701         0.301364
 C        -0.687836         1.124101         0.565139
 C        -2.204631         0.924789         0.559127
 C        -1.581631         2.026433        -0.264007
 C        -1.316694         3.232246         0.591564
 C        -0.206557         4.230723         0.023217
 O         0.886568         4.374485         0.956014
 C         1.027696         2.987441         1.380668
 C        -0.383424         2.324992         1.448099
 H        -0.250925        -0.604602         0.274837
 H        -2.531498         0.086674        -0.147930
 H        -2.898484         1.215789         1.459309
 H        -1.728239         2.242976        -1.336347
 H        -2.245711         3.714098         1.047699
 H         0.110293         3.815668        -1.010673
 H        -0.720464         5.146415        -0.140813
 H         1.830559         2.527915         0.709904
 H         1.504110         2.957140         2.441086
 H        -0.676872         2.075663         2.453418
