19
Iteration:   337charge 0 multiplicity 1
 O         0.355948         0.189133         0.344420
 C        -0.686393         1.140303         0.671225
 C        -2.187353         0.919224         0.413878
 C        -1.486359         2.133358        -0.140655
 C        -1.356393         3.344233         0.871059
 C        -0.404830         4.453775         0.393193
 O         0.825266         3.871498         0.168889
 C         1.059646         2.992902         1.301464
 C        -0.345740         2.360917         1.549878
 H         0.338662        -0.478549         1.191288
 H        -2.251523         0.099624        -0.307273
 H        -2.992914         1.009594         1.076342
 H        -1.734777         2.248187        -1.260919
 H        -2.283581         3.689021         1.343484
 H        -0.788092         4.913578        -0.527259
 H        -0.249703         5.211575         1.151995
 H         1.846237         2.361600         1.052874
 H         1.257058         3.567702         2.163949
 H        -0.539188         2.043061         2.665538
