19
Iteration:  3797
 O         0.091931         0.032241         0.358704
 C        -0.722325         1.216802         0.526354
 C        -2.161016         0.949309         0.449433
 C        -1.574127         2.055408        -0.329667
 C        -1.227714         3.224047         0.713785
 C        -0.298463         4.240537         0.019065
 O         0.854362         4.341667         0.865975
 C         1.114965         3.071907         1.491502
 C        -0.299037         2.223233         1.519417
 H         0.508708         0.092565        -0.458476
 H        -2.386364         0.027123        -0.063607
 H        -2.792075         1.218861         1.184713
 H        -1.783038         2.081547        -1.423205
 H        -2.072090         3.458887         1.258987
 H        -0.015575         3.847316        -1.026734
 H        -0.702762         5.271764        -0.119798
 H         1.794726         2.619419         0.834470
 H         1.424976         3.379012         2.496091
 H        -0.501693         2.027254         2.561347
