19
Iteration:   304charge 0 multiplicity 1
 O         0.251332         0.303543         0.196265
 C        -0.623350         1.250056         0.689955
 C        -2.121475         1.011764         0.633834
 C        -1.425902         2.049353        -0.190418
 C        -1.336574         3.269039         0.690537
 C        -0.462577         4.313790         0.289947
 O         0.817303         3.891436         0.306830
 C         1.088933         2.953165         1.390288
 C        -0.346744         2.356211         1.604578
 H         0.016400        -0.536270         0.527417
 H        -2.405915         0.084960         0.116590
 H        -2.745370         1.339314         1.393356
 H        -1.509450         2.040890        -1.343821
 H        -2.294903         3.576815         1.108619
 H        -0.785116         4.771626        -0.646544
 H        -0.688890         5.062388         1.060060
 H         1.796331         2.273863         0.996759
 H         1.516748         3.473971         2.210967
 H        -0.652374         2.129431         2.708693
