19
Iteration:  4994
 O         0.459610         0.375814         0.505637
 C        -0.669969         1.216942         0.600605
 C        -2.116512         0.886952         0.491597
 C        -1.588192         2.107075        -0.401371
 C        -1.322466         3.273500         0.655413
 C        -0.306770         4.465943         0.366618
 O         0.898004         3.854516         0.323758
 C         0.879866         2.889934         1.454130
 C        -0.483957         2.289766         1.568481
 H         0.517801        -0.013761        -0.433036
 H        -2.435114        -0.137711         0.119987
 H        -2.691803         1.129989         1.435956
 H        -1.757072         2.075480        -1.479136
 H        -2.309345         3.676188         1.083558
 H        -0.397012         5.029556        -0.588594
 H        -0.527922         5.132868         1.283483
 H         1.527600         2.099588         1.136007
 H         1.128873         3.500315         2.288010
 H        -0.863809         2.036377         2.554032
