19
Iteration:   423
 O         0.318298         0.311213         0.190337
 C        -0.703088         1.188388         0.615320
 C        -2.166800         0.860496         0.656863
 C        -1.645143         2.063735        -0.150344
 C        -1.314268         3.240976         0.691845
 C        -0.402288         4.383511         0.308969
 O         0.979966         3.875802         0.296869
 C         1.000744         3.074466         1.397268
 C        -0.298546         2.352597         1.560705
 H         0.070669        -0.535736         0.498628
 H        -2.665165         0.137262         0.054945
 H        -2.659169         0.988923         1.603837
 H        -1.689344         2.097016        -1.256581
 H        -2.133594         3.669618         1.168154
 H        -0.562091         4.871904        -0.694734
 H        -0.496271         5.223389         1.056793
 H         1.827513         2.414374         1.345055
 H         1.000918         3.753240         2.374390
 H        -0.495892         2.190612         2.568601
