19
Iteration:  2612charge 0 multiplicity 1
 O         0.238310         0.302191         0.195934
 C        -0.585667         1.251185         0.628728
 C        -2.169107         0.964982         0.611063
 C        -1.505803         2.090320        -0.178316
 C        -1.295064         3.196449         0.825815
 C        -0.445760         4.338952         0.148956
 O         0.890867         3.746282         0.249267
 C         0.960498         3.098350         1.558995
 C        -0.376647         2.318081         1.634647
 H         1.163141         0.649342        -0.182619
 H        -2.328267         0.053300         0.055868
 H        -2.906273         1.285126         1.306088
 H        -1.471081         2.184587        -1.301998
 H        -2.156420         3.604956         1.243257
 H        -0.627512         4.521814        -0.932065
 H        -0.453063         5.308132         0.707852
 H         1.924390         2.386605         1.647770
 H         1.138769         3.778435         2.386793
 H        -0.734803         2.115552         2.676311
