19
Iteration:  3577charge 0 multiplicity 1
 O         0.255898         0.074513         0.443572
 C        -0.729839         1.123397         0.631350
 C        -2.280844         0.908245         0.448147
 C        -1.536587         2.116149        -0.286983
 C        -1.250485         3.245548         0.730085
 C        -0.316552         4.273606         0.047489
 O         0.851704         4.315498         0.851564
 C         1.057401         2.933254         1.206164
 C        -0.351988         2.365407         1.547473
 H         1.172262         0.539328         0.438503
 H        -2.421944         0.138544        -0.287028
 H        -3.135592         1.068887         1.043941
 H        -1.871178         2.133985        -1.347881
 H        -2.060640         3.518022         1.393003
 H        -0.014527         3.786087        -0.858078
 H        -0.832173         5.249842        -0.326228
 H         1.529748         2.468132         0.271009
 H         1.953651         2.835909         1.974177
 H        -0.531425         2.215751         2.612398
