19
Iteration:  2207
 O         0.416295         0.295620         0.253989
 C        -0.638280         1.242496         0.551874
 C        -2.142870         0.974414         0.631935
 C        -1.621639         2.119391        -0.218986
 C        -1.417309         3.271334         0.738607
 C        -0.385209         4.373646         0.245881
 O         0.949610         3.853392         0.342897
 C         0.964306         2.959085         1.484386
 C        -0.379175         2.309854         1.491664
 H         0.196801        -0.625020         0.579111
 H        -2.514824         0.032299         0.364918
 H        -2.486966         1.317159         1.581204
 H        -1.807461         2.199430        -1.334958
 H        -2.189772         3.730262         1.292742
 H        -0.695574         4.671148        -0.744727
 H        -0.435976         5.247369         0.896899
 H         1.769561         2.199161         1.228962
 H         1.194961         3.478507         2.443722
 H        -0.825061         2.138133         2.520356
