19
Iteration:  2680charge 0 multiplicity 1
 O         0.307123         0.344326         0.310432
 C        -0.668691         1.205366         0.651662
 C        -2.089456         0.897472         0.596721
 C        -1.596113         2.099381        -0.144521
 C        -1.397117         3.283961         0.758319
 C        -0.383624         4.346916         0.193251
 O         0.971383         3.840718         0.279731
 C         0.962551         2.951226         1.402939
 C        -0.428570         2.326825         1.587609
 H         1.068343         0.904664         0.241394
 H        -2.305471         0.121064        -0.159130
 H        -2.864491         1.061798         1.376255
 H        -1.746511         2.297391        -1.182241
 H        -2.229068         3.562915         1.301195
 H        -0.558402         4.468198        -0.947434
 H        -0.541045         5.312646         0.724958
 H         1.969448         2.272548         1.176759
 H         1.313159         3.449672         2.342399
 H        -0.741207         2.022820         2.623493
