19
Iteration:  2993
 O         0.227577         0.259536         0.213899
 C        -0.668194         1.191856         0.607406
 C        -2.188444         0.887597         0.428037
 C        -1.528558         2.116413        -0.273836
 C        -1.328899         3.232503         0.758159
 C        -0.338173         4.339885         0.288877
 O         0.940665         3.801853         0.286175
 C         0.970083         3.175619         1.566368
 C        -0.356831         2.284874         1.693122
 H         0.915549         0.220782         0.814982
 H        -2.545817         0.094543        -0.251288
 H        -2.842538         1.071007         1.274228
 H        -1.575963         2.258203        -1.401459
 H        -2.171176         3.671241         1.118441
 H        -0.678648         4.636077        -0.667567
 H        -0.383117         5.229033         0.983332
 H         2.166475         2.926814         1.717703
 H         0.839622         3.987637         2.343167
 H        -0.539803         1.939885         2.732169
