19
Iteration:  3121charge 0 multiplicity 1
 O         0.304619         0.217902         0.333699
 C        -0.568762         1.307710         0.552953
 C        -2.033502         0.848364         0.344282
 C        -1.592629         2.208971        -0.200064
 C        -1.376024         3.297109         0.818100
 C        -0.419253         4.347929         0.218576
 O         0.918254         3.778801         0.297412
 C         0.983091         3.023382         1.623022
 C        -0.368445         2.368802         1.680261
 H        -0.287814        -0.562620        -0.048286
 H        -2.174637         0.124142        -0.485921
 H        -2.922004         0.772913         0.998385
 H        -1.695151         2.467908        -1.300430
 H        -2.373318         3.864395         1.181717
 H        -0.647907         4.614823        -0.865264
 H        -0.510604         5.277392         0.860109
 H         1.793537         2.423001         1.640473
 H         1.060138         3.911022         2.282673
 H        -0.681411         2.101340         2.689670
