19
Iteration:   439charge 0 multiplicity 1
 O         0.249898         0.307242         0.159286
 C        -0.660364         1.192608         0.631351
 C        -2.115421         0.826095         0.610686
 C        -1.806645         2.068543        -0.206388
 C        -1.342790         3.267411         0.729708
 C        -0.354567         4.361336         0.205616
 O         0.983658         3.908324         0.273873
 C         1.131368         3.106829         1.563296
 C        -0.327263         2.351818         1.600316
 H         0.180932        -0.505520         0.567484
 H        -2.050897        -0.147493         0.033080
 H        -2.886428         0.813254         1.430060
 H        -2.239786         2.120455        -1.196053
 H        -2.187285         3.674465         1.463275
 H        -0.553527         4.729429        -0.777458
 H        -0.437995         5.237832         0.868042
 H         2.093519         2.488702         1.448323
 H         1.356425         3.723798         2.359912
 H        -0.690258         2.097732         2.737356
