19
Iteration:  4232charge 0 multiplicity 1
 O         0.213197         0.149117         0.332206
 C        -0.698448         1.095186         0.680409
 C        -2.153245         0.913804         0.431910
 C        -1.547280         2.017282        -0.351404
 C        -1.244130         3.208680         0.629377
 C        -0.309998         4.329339         0.078279
 O         0.911880         4.343647         0.797936
 C         1.067535         2.938280         1.450617
 C        -0.404853         2.342052         1.526071
 H        -0.237453        -0.603440        -0.081077
 H        -2.436600        -0.024323        -0.125055
 H        -2.815745         1.307128         1.291878
 H        -1.819333         2.256543        -1.372974
 H        -2.145413         3.577426         1.184907
 H        -0.194273         4.213272        -0.968066
 H        -0.717302         5.294337         0.419241
 H         1.607798         2.345042         0.775014
 H         1.549514         3.138909         2.376127
 H        -0.692183         2.260197         2.584603
