19
Iteration:  2147
 O         0.239565         0.392384         0.136998
 C        -0.652151         1.164445         0.731109
 C        -2.118687         0.886439         0.505317
 C        -1.462428         2.153998        -0.159181
 C        -1.284822         3.276044         0.732767
 C        -0.454091         4.379173         0.203248
 O         0.864378         3.707516         0.255267
 C         0.988595         3.058732         1.528596
 C        -0.328742         2.388031         1.726460
 H         0.285304        -0.527083         0.631862
 H        -2.174056         0.062352        -0.280963
 H        -2.935189         0.910230         1.258370
 H        -1.604485         2.200027        -1.226798
 H        -2.311947         3.679751         1.187521
 H        -0.692059         4.722345        -0.837266
 H        -0.306665         5.273995         0.884732
 H         1.785294         2.289536         1.325483
 H         1.403771         3.676798         2.368332
 H        -0.754423         2.205125         2.678335
