19
Iteration:  4083charge 0 multiplicity 1
 O         0.251477         0.113828         0.277529
 C        -0.714594         1.134142         0.519302
 C        -2.169224         0.924034         0.648321
 C        -1.690000         2.011708        -0.378756
 C        -1.180360         3.233012         0.511486
 C        -0.246052         4.389094        -0.017072
 O         0.812865         4.270389         0.971947
 C         1.039016         2.990286         1.495035
 C        -0.305191         2.294211         1.455991
 H        -0.079110        -0.740303         0.385961
 H        -2.569020         0.037036         0.153436
 H        -2.528176         1.154617         1.623551
 H        -2.021661         1.944913        -1.424074
 H        -1.960797         3.847849         1.119006
 H         0.151950         4.303446        -0.973081
 H        -0.649513         5.416116        -0.131867
 H         1.786793         2.542397         0.968757
 H         1.453010         3.020214         2.546196
 H        -0.806504         2.390507         2.436231
