19
Iteration:  2844
 O         0.311230         0.279871         0.208249
 C        -0.706813         1.169706         0.649405
 C        -2.161443         0.937239         0.547953
 C        -1.520920         2.120650        -0.256272
 C        -1.372544         3.262467         0.771453
 C        -0.386251         4.344021         0.261498
 O         0.888891         3.787709         0.260998
 C         1.032248         3.089582         1.510100
 C        -0.391076         2.316112         1.581003
 H         0.864162         0.185649         1.082377
 H        -2.378785         0.073841        -0.103741
 H        -2.828847         1.209608         1.419394
 H        -1.429584         2.319695        -1.349472
 H        -2.332722         3.611091         1.319550
 H        -0.485738         4.846639        -0.800656
 H        -0.282675         5.166746         1.019530
 H         1.947825         2.562513         1.497776
 H         1.055030         3.784712         2.470283
 H        -0.642438         2.045026         2.633639
