19
Iteration:  3262charge 0 multiplicity 1
 O         0.342800         0.127244         0.246583
 C        -0.611806         1.203521         0.611246
 C        -2.075894         0.991384         0.429877
 C        -1.467456         2.080959        -0.284326
 C        -1.321207         3.316298         0.787170
 C        -0.446967         4.379655         0.227232
 O         0.881649         3.833228         0.336333
 C         0.945513         3.066091         1.631973
 C        -0.440358         2.412186         1.679143
 H        -0.055154        -0.271161        -0.562133
 H        -2.335950         0.018907         0.010767
 H        -2.699779         1.191421         1.316506
 H        -1.442004         2.195083        -1.362617
 H        -2.182462         3.706872         1.143103
 H        -0.688052         4.636195        -0.882459
 H        -0.435757         5.267527         0.882575
 H         1.778804         2.392133         1.603964
 H         0.942150         3.825944         2.400054
 H        -0.837774         2.036575         2.629951
