19
Iteration:    68
 O         0.328959         0.195925         0.355293
 C        -0.628969         1.129740         0.540306
 C        -2.181691         1.041678         0.631432
 C        -1.511336         2.058965        -0.258777
 C        -1.304390         3.204438         0.775294
 C        -0.497087         4.456633         0.292398
 O         0.840571         4.028822         0.339598
 C         1.075158         2.954508         1.334243
 C        -0.286036         2.252941         1.501986
 H         0.167287        -0.510362         1.139229
 H        -2.889002         0.382055         0.150804
 H        -2.692307         1.496493         1.527122
 H        -1.940651         2.243009        -1.253698
 H        -2.219333         3.516132         1.224874
 H        -0.702480         4.700371        -0.815790
 H        -0.729843         5.371027         0.895956
 H         1.920632         2.367618         0.926423
 H         1.491875         3.480826         2.208658
 H        -0.489262         1.942223         2.561643
