19
Iteration:   389
 O         0.320820         0.256022         0.234813
 C        -0.597279         1.209737         0.671180
 C        -2.117622         0.984821         0.534480
 C        -1.469957         2.177951        -0.190034
 C        -1.333891         3.284650         0.716375
 C        -0.533592         4.430316         0.339243
 O         0.803740         3.784086         0.248758
 C         1.022432         2.942795         1.340000
 C        -0.318553         2.366166         1.719064
 H         0.035537        -0.601530         0.699513
 H        -2.583038         0.187575        -0.112907
 H        -2.606082         1.279492         1.459598
 H        -1.375223         2.218938        -1.315166
 H        -2.252533         3.465157         1.190964
 H        -0.736907         4.687222        -0.757392
 H        -0.548313         5.315952         1.039713
 H         1.704467         2.136956         1.055600
 H         1.617351         3.480667         2.189930
 H        -0.456391         2.204378         2.734901
