19
Iteration:  2432
 O         0.236363         0.267450         0.197447
 C        -0.648499         1.197342         0.676467
 C        -2.131644         0.910796         0.608810
 C        -1.541119         2.056623        -0.208216
 C        -1.310583         3.277489         0.658949
 C        -0.417973         4.408499         0.247386
 O         0.926019         3.852404         0.272359
 C         0.990169         2.950382         1.473792
 C        -0.426992         2.390189         1.716001
 H         0.911789         0.938501        -0.267394
 H        -2.459589        -0.051230         0.079197
 H        -2.661609         1.049346         1.626795
 H        -1.341015         1.862340        -1.283671
 H        -2.202818         3.704213         0.947894
 H        -0.557762         4.789209        -0.787093
 H        -0.488717         5.192626         1.036691
 H         1.912248         2.273406         1.291729
 H         1.332189         3.487063         2.386870
 H        -0.599643         2.307661         2.861295
