19
Iteration:  2695
 O         0.393182         0.282187         0.256762
 C        -0.710826         1.178746         0.631027
 C        -2.238094         0.927386         0.545443
 C        -1.592627         2.122218        -0.212577
 C        -1.268993         3.267468         0.806149
 C        -0.466469         4.315505         0.147211
 O         0.896609         3.831134         0.312172
 C         1.030092         2.982495         1.451268
 C        -0.338206         2.398868         1.663827
 H         1.275392         0.592887         0.540237
 H        -2.644850         0.130309        -0.098882
 H        -2.834894         0.979100         1.507824
 H        -1.711905         2.094767        -1.320946
 H        -2.173922         3.817785         1.229275
 H        -0.710142         4.522903        -0.879616
 H        -0.578559         5.323272         0.694422
 H         1.665977         2.161826         1.257416
 H         1.225917         3.624233         2.336676
 H        -0.516817         2.393486         2.730658
