19
Iteration:  4286
 O         0.277193         0.153456         0.430795
 C        -0.711118         1.157748         0.612005
 C        -2.187884         0.967945         0.456340
 C        -1.613240         2.045796        -0.344494
 C        -1.229939         3.204902         0.590199
 C        -0.283221         4.312417         0.106440
 O         0.849864         4.302636         0.982818
 C         1.030623         2.921663         1.241293
 C        -0.361543         2.336933         1.496901
 H        -0.158503        -0.642380         0.218366
 H        -2.348058         0.049576        -0.223162
 H        -2.999074         0.953992         1.320714
 H        -1.430458         2.193375        -1.408531
 H        -2.223068         3.611235         1.029079
 H        -0.025928         4.107422        -0.995243
 H        -0.630294         5.358701         0.099854
 H         1.404904         2.444918         0.334556
 H         1.788210         2.838590         2.068108
 H        -0.524819         2.207035         2.556079
