19
Iteration:  2402
 O         0.279961         0.219977         0.288997
 C        -0.633385         1.175140         0.623727
 C        -2.136365         0.931280         0.556026
 C        -1.636196         2.102406        -0.202281
 C        -1.295625         3.268329         0.749100
 C        -0.395874         4.340867         0.270471
 O         0.961820         3.842726         0.253264
 C         1.016248         3.094907         1.538842
 C        -0.416902         2.366428         1.558405
 H         0.280025         0.231515        -0.682849
 H        -2.401673         0.068879        -0.108880
 H        -2.596415         0.948626         1.498672
 H        -1.677486         2.044591        -1.291245
 H        -2.286393         3.632971         1.262485
 H        -0.602941         4.731723        -0.688145
 H        -0.431713         5.158569         1.002088
 H         2.029324         2.507175         1.618001
 H         0.934051         3.753688         2.419319
 H        -0.525485         2.333537         2.652909
