19
Iteration:  2988
 O         0.211937         0.278923         0.201026
 C        -0.641830         1.232696         0.648068
 C        -2.165176         0.855964         0.469382
 C        -1.533119         2.096502        -0.281194
 C        -1.296947         3.222268         0.719405
 C        -0.341048         4.391058         0.282574
 O         0.946156         3.777678         0.318106
 C         0.968918         3.150609         1.547347
 C        -0.380576         2.286919         1.651541
 H         0.966482        -0.036969         0.879352
 H        -2.360421         0.133494        -0.325522
 H        -2.900535         1.141914         1.261099
 H        -1.623951         2.380425        -1.299780
 H        -2.232520         3.758672         1.279061
 H        -0.803722         4.642079        -0.737114
 H        -0.418318         5.129728         1.101280
 H         1.951730         2.952078         1.591849
 H         0.925328         3.936997         2.332099
 H        -0.745146         1.986163         2.648365
