19
Iteration:  3423
 O         0.276085         0.331975         0.285162
 C        -0.698639         1.199025         0.608251
 C        -2.191120         0.821596         0.519319
 C        -1.576601         1.970835        -0.278792
 C        -1.346690         3.264226         0.632741
 C        -0.356175         4.359053         0.094552
 O         1.005643         4.010752         0.591446
 C         1.000605         2.898794         1.500471
 C        -0.395548         2.384475         1.635117
 H         1.056140         0.825968        -0.066089
 H        -2.574677        -0.093381         0.128309
 H        -2.838363         1.160955         1.319320
 H        -1.636303         2.141750        -1.327926
 H        -2.315772         3.668921         1.169944
 H        -0.427496         4.512574        -0.977575
 H        -0.585734         5.337259         0.638459
 H         1.580032         2.213441         0.978980
 H         1.402418         3.388883         2.405255
 H        -0.785771         2.354220         2.665939
