19
Iteration:  2037
 O         0.266804         0.232233         0.276335
 C        -0.666474         1.162699         0.601428
 C        -2.191142         1.004736         0.532788
 C        -1.513666         2.076723        -0.248205
 C        -1.273858         3.232908         0.808771
 C        -0.414716         4.331195         0.189093
 O         0.910267         3.983462         0.394424
 C         1.005416         3.021247         1.423718
 C        -0.308267         2.352357         1.566849
 H         0.053265        -0.627625         0.742392
 H        -2.557213         0.055763         0.180724
 H        -2.756108         1.328879         1.455563
 H        -1.696030         2.299831        -1.314176
 H        -2.251461         3.278327         1.325314
 H        -0.584397         4.474625        -0.888350
 H        -0.532775         5.244910         0.752405
 H         1.819033         2.291544         1.099519
 H         1.274274         3.625480         2.329662
 H        -0.633474         2.172772         2.579357
