19
Iteration:   264
 O         0.252714         0.261345         0.151957
 C        -0.688612         1.175586         0.568844
 C        -2.137180         0.789744         0.638715
 C        -1.698396         2.106280        -0.096331
 C        -1.299233         3.306505         0.736848
 C        -0.364955         4.329620         0.201706
 O         0.984983         3.965621         0.315422
 C         1.034456         3.091061         1.501926
 C        -0.286943         2.317827         1.551623
 H         0.264825        -0.474750         0.913604
 H        -2.267438         0.066317        -0.185546
 H        -2.837347         0.659744         1.500293
 H        -2.231132         2.266158        -1.047318
 H        -2.128027         3.948388         1.296885
 H        -0.404366         4.559052        -0.851318
 H        -0.507903         5.353595         0.743716
 H         1.987942         2.494712         1.405952
 H         0.795127         3.747734         2.431392
 H        -0.567591         2.122074         2.555585
