19
Iteration:  2814charge 0 multiplicity 1
 O         0.386096         0.328672         0.256376
 C        -0.705190         1.166285         0.685279
 C        -2.071894         0.858713         0.508449
 C        -1.655805         2.151395        -0.177924
 C        -1.369633         3.303582         0.767838
 C        -0.386850         4.333628         0.198242
 O         0.948276         3.887946         0.345880
 C         1.010575         2.914892         1.416457
 C        -0.454488         2.436049         1.627498
 H         0.294630        -0.423330         0.785127
 H        -2.236397         0.054726        -0.266174
 H        -2.866899         0.791284         1.308614
 H        -1.653870         2.294900        -1.273137
 H        -2.176474         3.750019         1.232478
 H        -0.420492         4.726902        -0.841599
 H        -0.451150         5.243398         0.778981
 H         1.708207         2.120239         0.862049
 H         1.455598         3.396105         2.246132
 H        -0.790732         2.382016         2.713255
