19
Iteration:  2204
 O         0.425108         0.301529         0.257246
 C        -0.632294         1.239436         0.560042
 C        -2.155580         0.965721         0.623406
 C        -1.632106         2.139403        -0.218944
 C        -1.388523         3.261187         0.726517
 C        -0.361112         4.346434         0.247118
 O         0.915143         3.855834         0.355334
 C         0.951241         2.952454         1.468515
 C        -0.368830         2.330458         1.491660
 H         0.158866        -0.509110         0.578181
 H        -2.595326         0.042159         0.316882
 H        -2.505568         1.251092         1.625515
 H        -1.780284         2.135275        -1.272628
 H        -2.236753         3.766430         1.399283
 H        -0.715312         4.580374        -0.784796
 H        -0.307439         5.289993         0.943227
 H         1.897566         2.260249         1.194398
 H         1.169907         3.460085         2.440641
 H        -0.865627         2.159625         2.460714
