19
Iteration:  4463
 O         0.308805         0.253968         0.350834
 C        -0.717898         1.191375         0.561737
 C        -2.150651         0.895012         0.560117
 C        -1.692331         2.058222        -0.265715
 C        -1.240145         3.313981         0.606550
 C        -0.185089         4.202702        -0.018570
 O         0.776281         4.260488         0.979401
 C         1.067517         2.896717         1.354532
 C        -0.417814         2.324071         1.465175
 H         0.240403        -0.224673        -0.504170
 H        -2.391045         0.000940        -0.010068
 H        -2.726696         0.868827         1.600389
 H        -1.857855         1.893046        -1.309686
 H        -2.125340         3.875003         1.105226
 H         0.264926         3.758239        -0.883015
 H        -0.551037         5.226738        -0.142861
 H         1.597493         2.506806         0.484965
 H         1.573341         2.921797         2.284318
 H        -0.742295         2.147716         2.445351
