19
Iteration:  2451charge 0 multiplicity 1
 O         0.301238         0.282523         0.255015
 C        -0.609786         1.194712         0.647265
 C        -2.130923         0.919904         0.606986
 C        -1.559401         2.136430        -0.194437
 C        -1.352427         3.303777         0.780632
 C        -0.415904         4.336693         0.221769
 O         0.926952         3.818068         0.313674
 C         0.982298         2.977732         1.406754
 C        -0.449474         2.355932         1.578547
 H         1.275531         0.586763         0.220380
 H        -2.311721         0.091211        -0.079509
 H        -2.961276         1.185199         1.341721
 H        -1.884085         2.324490        -1.242301
 H        -2.274488         3.543067         1.385470
 H        -0.465070         4.505625        -0.911664
 H        -0.481932         5.294045         0.777277
 H         1.639627         2.174485         1.324014
 H         1.376333         3.459306         2.339656
 H        -0.528819         2.291248         2.665170
