19
Iteration:  3547charge 0 multiplicity 1
 O         0.126672         0.032378         0.380810
 C        -0.670366         1.200168         0.626382
 C        -2.095453         0.893997         0.616663
 C        -1.518394         2.052887        -0.339530
 C        -1.270190         3.261475         0.564900
 C        -0.373840         4.401580         0.081745
 O         0.833361         4.224161         0.810755
 C         1.053922         2.937377         1.351162
 C        -0.332842         2.383144         1.507576
 H         0.800780         0.181441        -0.205266
 H        -2.274956        -0.011810         0.059245
 H        -2.892272         1.210471         1.311782
 H        -1.559514         1.926862        -1.447988
 H        -2.186471         3.555978         1.216901
 H        -0.102370         4.318585        -1.002835
 H        -0.789682         5.359209         0.240975
 H         1.636196         2.372300         0.594374
 H         1.739563         3.016080         2.251166
 H        -0.644517         2.177613         2.524570
