19
Iteration:  2863
 O         0.250643         0.203910         0.169676
 C        -0.566160         1.225584         0.615913
 C        -2.182117         1.049525         0.504010
 C        -1.516033         2.063262        -0.257320
 C        -1.282572         3.200867         0.711570
 C        -0.467751         4.321513         0.357486
 O         0.928941         3.740895         0.226074
 C         0.914822         3.131913         1.549667
 C        -0.328761         2.384519         1.719097
 H         1.143055         0.152598         0.730942
 H        -2.452591         0.147534         0.009168
 H        -2.771124         1.387961         1.324593
 H        -1.679084         2.076811        -1.344298
 H        -2.327843         3.596868         1.072900
 H        -0.705849         4.686236        -0.642790
 H        -0.503192         5.197292         1.095983
 H         1.760110         2.523539         1.554950
 H         1.137310         4.022767         2.222601
 H        -0.720708         2.325404         2.719240
