19
Iteration:  1763charge 0 multiplicity 1
 O         0.246460         0.289041         0.278768
 C        -0.679187         1.172620         0.729711
 C        -2.136444         0.873880         0.424606
 C        -1.516830         2.195686        -0.166022
 C        -1.350112         3.269406         0.814344
 C        -0.390817         4.362144         0.309090
 O         0.945523         3.826866         0.218890
 C         1.026384         3.028833         1.362444
 C        -0.397250         2.374641         1.614042
 H         0.228714        -0.561921         0.749431
 H        -2.164195         0.075832        -0.317097
 H        -2.902243         0.924066         1.148797
 H        -1.548671         2.218503        -1.289501
 H        -2.133973         3.722627         1.337374
 H        -0.645713         4.880100        -0.572477
 H        -0.358808         5.068735         1.130181
 H         1.816423         2.262843         1.276480
 H         1.155126         3.695045         2.262814
 H        -0.576516         2.306522         2.736741
