19
Iteration:  4709
 O         0.190556         0.166511         0.394673
 C        -0.713220         1.190292         0.628670
 C        -2.206574         0.845033         0.513328
 C        -1.620828         2.072391        -0.277975
 C        -1.188077         3.164504         0.674263
 C        -0.274716         4.202009        -0.015169
 O         0.770509         4.358177         0.944984
 C         1.110432         3.005263         1.301403
 C        -0.267291         2.337307         1.515617
 H         0.119656        -0.176927        -0.578511
 H        -2.477991         0.070929        -0.138615
 H        -3.114973         1.053619         1.071292
 H        -1.756856         2.304210        -1.306045
 H        -2.015265         3.694078         1.288703
 H         0.056834         3.858620        -1.061515
 H        -0.746276         5.124598        -0.404434
 H         1.627127         2.497232         0.359001
 H         1.882629         2.976174         2.199987
 H        -0.423221         2.187377         2.581681
