19
Iteration:  2547charge 0 multiplicity 1
 O         0.352735         0.277316         0.274296
 C        -0.688289         1.214776         0.619187
 C        -2.152541         0.913884         0.640475
 C        -1.634906         2.051407        -0.219466
 C        -1.350603         3.267763         0.718918
 C        -0.383940         4.361268         0.235417
 O         0.955380         3.838767         0.285622
 C         1.014458         3.001248         1.471870
 C        -0.430992         2.359682         1.635696
 H         0.913247         0.814245        -0.391424
 H        -2.460039         0.070151         0.054740
 H        -2.705308         1.336606         1.442271
 H        -1.533878         2.221447        -1.331565
 H        -2.382846         3.707968         1.011964
 H        -0.615781         4.758608        -0.793549
 H        -0.498770         5.141002         1.017366
 H         1.937498         2.286051         1.314897
 H         1.336636         3.562880         2.364093
 H        -0.788658         1.967784         2.620254
