19
Iteration:  2921charge 0 multiplicity 1
 O         0.357887         0.327176         0.426688
 C        -0.710262         1.207988         0.558755
 C        -2.220190         0.830187         0.482938
 C        -1.655348         2.106707        -0.249221
 C        -1.370860         3.270736         0.755768
 C        -0.402694         4.326697         0.234645
 O         1.010413         3.938692         0.407064
 C         1.095528         3.003866         1.408244
 C        -0.394879         2.302210         1.596300
 H         0.445112         0.216584        -0.478714
 H        -2.511372        -0.019981        -0.194584
 H        -2.914559         1.125684         1.312266
 H        -1.666293         2.234684        -1.338800
 H        -2.338881         3.759862         1.234931
 H        -0.386076         4.445781        -0.919544
 H        -0.523553         5.320213         0.759696
 H         1.845048         2.320490         1.253807
 H         1.363492         3.453888         2.446844
 H        -0.686117         2.081372         2.636104
