19
Iteration:   772
 O         0.244991         0.507482         0.092401
 C        -0.722726         1.180624         0.785035
 C        -2.102248         0.794300         0.516809
 C        -1.664389         2.038238        -0.104384
 C        -1.331101         3.334672         0.751642
 C        -0.382974         4.296317         0.181069
 O         0.998475         3.755149         0.274362
 C         1.069448         3.031458         1.476012
 C        -0.349626         2.422936         1.703602
 H         0.270810        -0.359176         0.389132
 H        -2.234053         0.008665        -0.222725
 H        -2.919549         0.756225         1.224770
 H        -1.609763         2.070792        -1.243061
 H        -2.223878         3.732626         1.319569
 H        -0.530697         4.550333        -0.906187
 H        -0.487333         5.200160         0.787787
 H         1.821968         2.340671         1.401592
 H         1.188487         3.722962         2.339704
 H        -0.754022         2.369051         2.809662
