19
Iteration:  4327
 O         0.249871         0.155357         0.257556
 C        -0.672785         1.145784         0.633889
 C        -2.185574         0.963214         0.584822
 C        -1.525314         1.945102        -0.318725
 C        -1.277119         3.205597         0.435963
 C        -0.204024         4.429074         0.142615
 O         0.850170         4.323259         1.037323
 C         0.991760         2.868625         1.246659
 C        -0.452859         2.364580         1.475841
 H         0.228396        -0.627720         0.970440
 H        -2.398765         0.009685         0.129117
 H        -2.776305         1.204756         1.446186
 H        -1.506533         1.675865        -1.373970
 H        -2.143462         3.654567         0.951007
 H         0.277088         4.450102        -0.850660
 H        -0.767312         5.248027         0.406693
 H         1.170431         2.476216         0.227049
 H         1.802771         2.573634         2.041889
 H        -0.966887         2.402790         2.431763
