19
Iteration:  3410charge 0 multiplicity 1
 O         0.290685         0.214507         0.252488
 C        -0.676563         1.179447         0.589849
 C        -2.085391         0.877248         0.640182
 C        -1.575480         2.109495        -0.299703
 C        -1.344410         3.264962         0.602334
 C        -0.417030         4.362451         0.136752
 O         0.974101         3.945496         0.525432
 C         0.994242         2.973392         1.570421
 C        -0.466087         2.400242         1.575034
 H         0.930095         0.625775        -0.348742
 H        -2.386469         0.162510        -0.094692
 H        -2.724365         1.164225         1.486340
 H        -1.605228         1.931715        -1.357228
 H        -2.266864         3.729981         1.046279
 H        -0.289814         4.610036        -0.896462
 H        -0.683980         5.345505         0.721464
 H         1.704272         2.205949         1.472117
 H         1.349111         3.283782         2.648913
 H        -0.805291         2.143342         2.593272
