19
Iteration:  2560charge 0 multiplicity 1
 O         0.298200         0.313909         0.347669
 C        -0.716638         1.189220         0.580131
 C        -2.148190         0.773202         0.629004
 C        -1.616698         2.158681        -0.226222
 C        -1.328006         3.295518         0.719121
 C        -0.363594         4.388418         0.248635
 O         0.965787         3.839953         0.320010
 C         1.019620         3.014776         1.439655
 C        -0.384319         2.321738         1.545046
 H         0.958973         0.704352        -0.249764
 H        -2.505158         0.001188        -0.118003
 H        -2.745194         0.692400         1.561527
 H        -2.040127         2.174465        -1.262512
 H        -2.263877         3.807066         1.372124
 H        -0.463002         4.660921        -0.868690
 H        -0.423599         5.336170         0.782813
 H         1.849200         2.310433         1.361061
 H         1.062075         3.651451         2.375170
 H        -0.587103         2.267911         2.631530
