19
Iteration:  4977charge 0 multiplicity 1
 O         0.472453         0.372558         0.475493
 C        -0.654361         1.192754         0.617755
 C        -2.118795         0.921406         0.415947
 C        -1.466152         2.143727        -0.251413
 C        -1.440449         3.309053         0.697350
 C        -0.425146         4.391559         0.345614
 O         0.898615         3.730760         0.290869
 C         0.961664         2.914161         1.422029
 C        -0.497174         2.418187         1.595926
 H         0.376159        -0.138641        -0.377465
 H        -2.321609         0.322423        -0.423940
 H        -2.893327         0.973171         1.160245
 H        -1.412348         2.233394        -1.332768
 H        -2.426680         3.640490         1.036021
 H        -0.713786         4.830379        -0.642019
 H        -0.409973         5.014995         1.233691
 H         1.725284         2.108336         1.343266
 H         1.212423         3.367750         2.455334
 H        -0.771247         2.277364         2.664662
