19
Iteration:  4032charge 0 multiplicity 1
 O         0.230351         0.276072         0.309916
 C        -0.737840         1.184542         0.747227
 C        -2.153141         0.905693         0.426610
 C        -1.480592         2.083585        -0.214006
 C        -1.262677         3.246246         0.648773
 C        -0.261054         4.193255        -0.012129
 O         0.778658         4.280468         0.896441
 C         1.036286         2.872182         1.297464
 C        -0.368722         2.307808         1.571070
 H        -0.180389        -0.647392         0.333694
 H        -2.252539         0.127053        -0.405042
 H        -3.134041         0.952285         1.065751
 H        -1.294507         2.293483        -1.272189
 H        -2.037747         3.891889         1.024391
 H         0.170936         4.041670        -1.095331
 H        -0.803517         5.121058        -0.126364
 H         1.603850         2.527875         0.310749
 H         1.771693         2.814503         2.182338
 H        -0.649177         2.241744         2.621485
