19
Iteration:  2991charge 0 multiplicity 1
 O         0.219984         0.269298         0.211226
 C        -0.654472         1.207972         0.624813
 C        -2.181669         0.870244         0.443266
 C        -1.530377         2.108945        -0.278746
 C        -1.318538         3.227718         0.741474
 C        -0.335097         4.361095         0.284221
 O         0.942841         3.791706         0.300021
 C         0.966975         3.164929         1.556590
 C        -0.366054         2.284744         1.679144
 H         0.923930         0.115809         0.822831
 H        -2.485581         0.114647        -0.294317
 H        -2.867130         1.108155         1.283740
 H        -1.599445         2.318147        -1.379673
 H        -2.176504         3.706384         1.170598
 H        -0.747188         4.617968        -0.674492
 H        -0.396441         5.198943         1.049346
 H         2.119288         2.976150         1.667171
 H         0.885125         3.982403         2.342457
 H        -0.621261         1.939660         2.705682
