19
Iteration:   674
 O         0.191492         0.221690         0.147555
 C        -0.614395         1.174969         0.750855
 C        -2.169823         0.817649         0.510186
 C        -1.429139         2.021507        -0.098163
 C        -1.313459         3.354815         0.760986
 C        -0.430143         4.444685         0.233453
 O         0.884792         3.970783         0.315574
 C         1.064260         2.943795         1.288643
 C        -0.379416         2.432204         1.731765
 H         0.196873        -0.433267         0.843798
 H        -2.488767         0.031249        -0.186144
 H        -2.922471         0.973478         1.220969
 H        -1.446677         2.090742        -1.221426
 H        -2.252831         3.869534         1.074492
 H        -0.528347         4.909593        -0.809916
 H        -0.686946         5.295962         0.976570
 H         1.659535         2.165063         0.929643
 H         1.569745         3.341054         2.271552
 H        -0.444669         2.177245         2.844684
