19
Iteration:  2344charge 0 multiplicity 1
 O         0.351111         0.396182         0.273028
 C        -0.697115         1.252028         0.713649
 C        -2.172904         0.874777         0.514875
 C        -1.546557         2.011378        -0.200473
 C        -1.343162         3.255479         0.752062
 C        -0.317187         4.382416         0.241015
 O         0.937847         3.874077         0.274019
 C         1.036518         3.009940         1.427071
 C        -0.466051         2.317965         1.672224
 H        -0.052950        -0.407260        -0.220929
 H        -2.375927         0.015508        -0.098107
 H        -3.019705         1.047156         1.342146
 H        -1.729743         2.172870        -1.266972
 H        -2.298628         3.676255         1.072814
 H        -0.635418         4.840474        -0.742824
 H        -0.430471         5.128923         1.015237
 H         1.696839         2.131011         1.065171
 H         1.426974         3.517438         2.338721
 H        -0.508933         2.084068         2.789725
