19
Iteration:  1089charge 0 multiplicity 1
 O         0.307592         0.433794         0.193262
 C        -0.716194         1.289884         0.634269
 C        -2.211130         0.778408         0.477817
 C        -1.730784         2.083039        -0.085130
 C        -1.338541         3.274575         0.853150
 C        -0.368004         4.309024         0.208739
 O         1.040339         3.804290         0.272305
 C         1.055572         3.080253         1.440387
 C        -0.316083         2.353726         1.612782
 H         0.220371        -0.383141         0.852142
 H        -2.246649         0.008658        -0.293380
 H        -2.877269         0.737869         1.271365
 H        -1.885302         2.152408        -1.198661
 H        -2.189605         3.642838         1.381524
 H        -0.569942         4.471320        -0.879338
 H        -0.420996         5.179840         0.859375
 H         1.818960         2.370025         1.460361
 H         1.167119         3.789253         2.298968
 H        -0.466247         1.974434         2.578722
