19
Iteration:   378charge 0 multiplicity 1
 O         0.268233         0.276054         0.299149
 C        -0.646664         1.258431         0.655526
 C        -2.119551         0.971983         0.496780
 C        -1.432472         2.115509        -0.182653
 C        -1.395288         3.263035         0.880069
 C        -0.443261         4.345504         0.321060
 O         0.799963         3.818607         0.221678
 C         1.085174         2.982788         1.310765
 C        -0.332324         2.358637         1.613751
 H         0.103087        -0.452542         0.825109
 H        -2.187866         0.148339        -0.271466
 H        -2.997737         0.998139         1.139803
 H        -1.299826         2.324428        -1.283190
 H        -2.250679         3.608955         1.387587
 H        -0.682554         4.909339        -0.650465
 H        -0.530385         5.137279         1.129240
 H         1.760844         2.247460         0.891523
 H         1.494088         3.580356         2.211919
 H        -0.478947         2.205278         2.630506
