19
Iteration:   130
 O         0.300379         0.333513         0.201612
 C        -0.649715         1.169663         0.758471
 C        -2.141748         0.952453         0.547888
 C        -1.506133         2.075235        -0.186495
 C        -1.310814         3.258414         0.825902
 C        -0.478457         4.362115         0.273054
 O         0.845943         3.830209         0.129505
 C         1.062063         3.013354         1.428792
 C        -0.339880         2.357337         1.655446
 H         0.175039        -0.659208         0.559452
 H        -2.380181         0.118737        -0.039323
 H        -2.873826         1.315526         1.223613
 H        -1.168922         2.280971        -1.177383
 H        -2.282194         3.688840         1.291456
 H        -0.797849         4.666268        -0.650717
 H        -0.457726         5.174079         1.049450
 H         1.924339         2.447919         1.300101
 H         1.024238         3.687534         2.302053
 H        -0.516157         2.168909         2.687530
