19
Iteration:    26
 O         0.235557         0.223604         0.155246
 C        -0.722970         1.116142         0.757108
 C        -2.128966         0.698297         0.577416
 C        -1.468125         2.044250        -0.105319
 C        -1.309227         3.370317         0.747702
 C        -0.376346         4.516902         0.257269
 O         0.953408         4.012973         0.273910
 C         1.005951         2.959850         1.321463
 C        -0.416630         2.430939         1.670942
 H         0.291909        -0.486038         0.723751
 H        -2.380323        -0.008911        -0.206745
 H        -2.974411         0.809053         1.316601
 H        -1.603730         1.948126        -1.187339
 H        -2.171441         3.735981         1.200784
 H        -0.689258         4.958855        -0.770098
 H        -0.486750         5.425721         0.817519
 H         1.801726         2.219874         0.950613
 H         1.476149         3.319489         2.264920
 H        -0.678796         2.429107         2.791302
