19
Iteration:  3046
 O         0.303051         0.311786         0.324141
 C        -0.637819         1.282260         0.609093
 C        -2.111247         0.835758         0.543158
 C        -1.572753         2.108262        -0.281055
 C        -1.411728         3.300951         0.659373
 C        -0.411149         4.402047         0.251845
 O         1.020983         3.828854         0.418003
 C         0.973085         2.934827         1.518947
 C        -0.449703         2.396311         1.581899
 H         0.463484         0.207789        -0.562554
 H        -2.140372        -0.148766         0.065703
 H        -2.899956         0.798868         1.298225
 H        -1.467920         2.187815        -1.404446
 H        -2.295853         3.682505         1.180979
 H        -0.476636         4.881481        -0.688166
 H        -0.475972         5.271754         0.947253
 H         1.570365         2.118572         1.158359
 H         1.395186         3.350444         2.460210
 H        -0.788430         2.049405         2.568624
