19
Iteration:   507
 O         0.306555         0.477279         0.070925
 C        -0.709292         1.220797         0.686383
 C        -2.145610         0.847368         0.657200
 C        -1.640625         2.059786        -0.179856
 C        -1.408376         3.263866         0.702533
 C        -0.345482         4.275094         0.275614
 O         1.012781         3.766497         0.209737
 C         1.050998         3.040426         1.517265
 C        -0.395473         2.382170         1.645558
 H         0.576599        -0.327969         0.702098
 H        -2.372688        -0.084424         0.115219
 H        -2.593416         1.078506         1.681108
 H        -1.887548         2.171308        -1.262666
 H        -2.281171         3.877253         1.220185
 H        -0.564307         4.726623        -0.716063
 H        -0.475789         5.048561         1.013029
 H         1.944274         2.369121         1.565112
 H         1.184474         3.733752         2.303561
 H        -0.899095         2.206575         2.705994
