19
Iteration:  2199
 O         0.430940         0.340062         0.254738
 C        -0.633455         1.204009         0.562217
 C        -2.159513         0.953955         0.625114
 C        -1.658785         2.147834        -0.219972
 C        -1.313761         3.278836         0.729091
 C        -0.351471         4.324478         0.258340
 O         0.870570         3.848950         0.367697
 C         0.970528         2.941121         1.431710
 C        -0.379155         2.368003         1.527236
 H         0.015248        -0.540738         0.659518
 H        -2.706743         0.071594         0.064077
 H        -2.624337         1.099963         1.637543
 H        -1.799684         2.074169        -1.332588
 H        -2.108604         3.624234         1.330330
 H        -0.559534         4.492194        -0.815661
 H        -0.308841         5.221105         0.842230
 H         1.842378         2.485891         1.265147
 H         1.124970         3.464788         2.387444
 H        -0.773812         2.141460         2.523187
