19
Iteration:  1110charge 0 multiplicity 1
 O         0.329233         0.333729         0.159427
 C        -0.678237         1.140529         0.747550
 C        -2.098282         0.865932         0.460718
 C        -1.658331         2.197262        -0.126935
 C        -1.294336         3.317410         0.872474
 C        -0.373900         4.386383         0.225926
 O         0.903413         3.740524         0.171964
 C         0.990080         3.034793         1.491618
 C        -0.392231         2.363173         1.667299
 H         0.378054        -0.497836         0.578245
 H        -2.255556         0.151157        -0.368503
 H        -2.780602         0.751015         1.263667
 H        -1.664431         2.301146        -1.252926
 H        -2.120765         3.768048         1.314975
 H        -0.772452         4.632307        -0.785224
 H        -0.381996         5.250300         0.872221
 H         1.926471         2.480786         1.484854
 H         1.185384         3.799059         2.225088
 H        -0.562745         2.280633         2.785371
