19
Iteration:  2505
 O         0.250060         0.197714         0.228566
 C        -0.607801         1.219805         0.681257
 C        -2.123907         0.887699         0.503177
 C        -1.584964         2.118729        -0.185661
 C        -1.352594         3.353525         0.778316
 C        -0.375641         4.368075         0.227067
 O         0.902416         3.792388         0.169672
 C         0.970171         3.109364         1.550971
 C        -0.379564         2.294245         1.717811
 H         1.021427         0.536715        -0.351914
 H        -2.360642        -0.051722         0.001791
 H        -2.797827         0.927360         1.379011
 H        -1.360688         2.109073        -1.282986
 H        -2.324963         3.802719         1.369524
 H        -0.590744         4.795924        -0.806826
 H        -0.320676         5.218685         0.904410
 H         1.760171         2.361084         1.509621
 H         1.196794         3.881740         2.333483
 H        -0.605905         2.123151         2.783597
