19
Iteration:  3830
 O         0.219358         0.015357         0.309667
 C        -0.729571         1.104831         0.611066
 C        -2.188704         0.984590         0.544839
 C        -1.504735         2.015530        -0.326628
 C        -1.257818         3.235215         0.603653
 C        -0.229374         4.340412         0.014630
 O         0.829540         4.362738         0.980271
 C         1.045669         3.003107         1.359241
 C        -0.394225         2.322632         1.543778
 H        -0.035703        -0.193206        -0.673201
 H        -2.509361         0.117180        -0.005598
 H        -2.798584         1.332819         1.262388
 H        -1.781412         1.911439        -1.407105
 H        -2.128989         3.566552         1.142391
 H         0.001147         3.922807        -0.973064
 H        -0.506288         5.398606        -0.124260
 H         1.699803         2.471807         0.722305
 H         1.746042         3.072820         2.201460
 H        -0.755678         2.057692         2.531025
