19
Iteration:  1445charge 0 multiplicity 1
 O         0.189318         0.078274         0.248007
 C        -0.671208         1.113344         0.637132
 C        -2.154991         0.928568         0.506882
 C        -1.610485         2.089798        -0.189637
 C        -1.343834         3.237203         0.765135
 C        -0.437145         4.536582         0.269346
 O         0.986835         3.989973         0.353938
 C         1.079047         3.051752         1.426662
 C        -0.239392         2.357997         1.517053
 H         0.427813        -0.332145         1.138443
 H        -2.460255         0.128389        -0.162163
 H        -2.720150         0.990745         1.358696
 H        -1.726789         2.130209        -1.254825
 H        -2.260004         3.587486         1.349138
 H        -0.716449         4.761945        -0.756176
 H        -0.651834         5.391309         0.882529
 H         1.896246         2.368680         1.195141
 H         1.149142         3.652868         2.295302
 H        -0.605721         2.216154         2.615915
