19
Iteration:  1056charge 0 multiplicity 1
 O         0.342115         0.348708         0.021023
 C        -0.577436         1.222941         0.647048
 C        -2.129149         1.017092         0.752847
 C        -1.495931         2.056244        -0.113971
 C        -1.329903         3.285232         0.725342
 C        -0.465235         4.411150         0.132365
 O         0.942933         3.799687         0.392385
 C         0.929446         2.907782         1.514375
 C        -0.424448         2.367997         1.574471
 H         0.325216        -0.437844         0.524419
 H        -2.608177         0.202395         0.164782
 H        -2.629571         1.188015         1.613764
 H        -1.921171         1.914231        -1.128906
 H        -2.292877         3.590576         1.130523
 H        -0.612799         4.584774        -0.971834
 H        -0.623292         5.409954         0.551125
 H         1.602018         2.156120         1.286553
 H         1.339812         3.473025         2.375271
 H        -0.609545         2.099922         2.535342
