19
Iteration:  4675
 O         0.207337         0.038846         0.318436
 C        -0.653703         1.081089         0.590657
 C        -2.148008         0.921374         0.687913
 C        -1.504621         2.018187        -0.315473
 C        -1.217048         3.219980         0.526757
 C        -0.306558         4.355056         0.043175
 O         0.797621         4.366003         0.962420
 C         1.050872         3.027056         1.299356
 C        -0.328796         2.383634         1.476666
 H        -0.242954        -0.635869        -0.327558
 H        -2.734170         0.280257         0.087008
 H        -2.790060         1.497848         1.393873
 H        -1.826218         2.074279        -1.345496
 H        -2.229281         3.461549         1.063538
 H         0.087579         3.944488        -0.927676
 H        -0.853818         5.321307         0.220552
 H         1.574366         2.312424         0.488360
 H         1.615050         2.861359         2.273809
 H        -0.770119         2.115487         2.388941
