19
Iteration:  1564
 O         0.437433         0.345533         0.187949
 C        -0.659517         1.196937         0.553502
 C        -2.099437         0.955424         0.640938
 C        -1.571625         2.168926        -0.178392
 C        -1.371016         3.348090         0.828365
 C        -0.386887         4.356948         0.257703
 O         0.957081         3.718797         0.236887
 C         0.928178         2.994621         1.508229
 C        -0.476909         2.327112         1.551942
 H         0.173732        -0.642720         0.450725
 H        -2.567240         0.064043         0.154990
 H        -2.673658         1.190987         1.543927
 H        -1.844863         2.405634        -1.190241
 H        -2.301710         3.627375         1.230366
 H        -0.573346         4.544341        -0.849318
 H        -0.301905         5.361822         0.778449
 H         1.738397         2.290895         1.482674
 H         0.991023         3.663114         2.508319
 H        -0.685830         2.061307         2.626135
