19
Iteration:  1131charge 0 multiplicity 1
 O         0.345516         0.343860         0.175607
 C        -0.592094         1.282334         0.622683
 C        -2.126367         0.991342         0.590950
 C        -1.408996         2.138865        -0.196612
 C        -1.421269         3.288616         0.828647
 C        -0.460605         4.372628         0.283503
 O         0.849559         3.669023         0.191691
 C         0.951119         2.978746         1.434534
 C        -0.380141         2.342355         1.695449
 H         0.086876        -0.515700         0.585803
 H        -2.352478         0.085247        -0.008391
 H        -2.836920         1.252025         1.337617
 H        -1.403574         2.339522        -1.296658
 H        -2.278200         3.632483         1.304025
 H        -0.668731         4.729493        -0.731040
 H        -0.372116         5.211462         0.978396
 H         1.791188         2.250667         1.288603
 H         1.350231         3.628140         2.216739
 H        -0.565530         2.212089         2.819971
