19
Iteration:  1870
 O         0.295286         0.295363         0.082095
 C        -0.631020         1.174897         0.670799
 C        -2.194986         0.986377         0.599097
 C        -1.477078         2.108343        -0.155813
 C        -1.314951         3.274450         0.767476
 C        -0.418101         4.372173         0.124659
 O         0.912868         3.847390         0.325960
 C         1.005690         2.987491         1.552071
 C        -0.401776         2.362376         1.660887
 H         0.329760        -0.681218         0.392010
 H        -2.616738         0.016859         0.221782
 H        -2.765037         1.295532         1.489629
 H        -1.492476         2.127570        -1.260874
 H        -2.172933         3.690221         1.304729
 H        -0.531640         4.407464        -0.968815
 H        -0.594406         5.397040         0.565836
 H         1.719583         2.298123         1.437240
 H         1.231181         3.513277         2.483580
 H        -0.637227         2.233634         2.659383
