19
Iteration:  1239
 O         0.287519         0.188308         0.172099
 C        -0.674790         1.098917         0.652879
 C        -2.226755         1.014373         0.650886
 C        -1.467457         2.053594        -0.196647
 C        -1.216759         3.262244         0.687748
 C        -0.437522         4.410157         0.219100
 O         0.893907         4.002236         0.377248
 C         0.966125         3.008778         1.406048
 C        -0.308998         2.321484         1.616439
 H         0.104077        -0.745271         0.530001
 H        -2.531879         0.154800         0.133021
 H        -2.825912         1.197919         1.509239
 H        -1.706214         2.168627        -1.297322
 H        -2.078843         3.680122         1.239956
 H        -0.637755         4.690156        -0.734468
 H        -0.828351         5.256536         0.840345
 H         1.822136         2.331612         1.068152
 H         1.223133         3.581982         2.294418
 H        -0.433318         2.374039         2.675723
