19
Iteration:  4934charge 0 multiplicity 1
 O         0.363627         0.274596         0.355983
 C        -0.690118         1.165553         0.690915
 C        -2.079976         0.937437         0.265831
 C        -1.435525         2.225019        -0.212906
 C        -1.393228         3.276540         0.816437
 C        -0.456387         4.323040         0.282166
 O         0.894966         3.753643         0.217187
 C         0.909125         3.100863         1.538271
 C        -0.385347         2.349301         1.663717
 H        -0.155929        -0.535456         0.277629
 H        -2.056468         0.271497        -0.594523
 H        -2.892570         0.827445         1.032145
 H        -1.242156         2.407471        -1.265187
 H        -2.267639         3.532361         1.362638
 H        -0.554486         4.494474        -0.802213
 H        -0.397616         5.207025         0.848793
 H         1.828412         2.539597         1.831088
 H         1.096797         3.917796         2.318777
 H        -0.506434         2.123610         2.776694
