19
Iteration:  2386charge 0 multiplicity 1
 O         0.336554         0.186625         0.337127
 C        -0.647492         1.216900         0.515955
 C        -2.122112         0.912455         0.575862
 C        -1.619520         2.200065        -0.204164
 C        -1.352682         3.265345         0.790847
 C        -0.389709         4.384777         0.190722
 O         0.933779         3.826285         0.294637
 C         0.921584         3.102683         1.488330
 C        -0.288627         2.279797         1.672319
 H         0.413200        -0.160961        -0.638871
 H        -2.402236         0.106521        -0.076288
 H        -2.926322         1.086488         1.422829
 H        -1.922481         2.467348        -1.224774
 H        -2.095243         3.756140         1.276470
 H        -0.563477         4.544866        -0.930550
 H        -0.466307         5.300753         0.827814
 H         1.784943         2.480073         1.451019
 H         1.180604         3.793299         2.354502
 H        -0.729141         1.842071         2.567119
