19
Iteration:  1257charge 0 multiplicity 1
 O         0.222609         0.219370         0.190920
 C        -0.679507         1.172168         0.648946
 C        -2.099415         0.825251         0.613125
 C        -1.652761         2.039773        -0.192505
 C        -1.379435         3.261835         0.722520
 C        -0.360046         4.465476         0.273367
 O         1.005874         3.945364         0.319858
 C         1.111226         3.066540         1.464413
 C        -0.389430         2.379072         1.544940
 H         0.078305        -0.600806         0.772783
 H        -2.403538         0.014474        -0.118111
 H        -2.825851         0.909589         1.466506
 H        -1.675128         1.961192        -1.259723
 H        -2.251397         3.811514         1.261239
 H        -0.534348         4.947675        -0.792492
 H        -0.480158         5.390473         0.940579
 H         1.846103         2.335209         1.137278
 H         1.219251         3.696605         2.370587
 H        -0.621528         2.150873         2.635634
