19
Iteration:  4174
 O         0.291596         0.207884         0.259253
 C        -0.680730         1.208144         0.569391
 C        -2.215858         0.880209         0.492317
 C        -1.627748         2.014762        -0.298727
 C        -1.314565         3.307202         0.610228
 C        -0.222012         4.202430         0.056755
 O         0.928525         4.302305         0.920199
 C         0.994042         2.919068         1.343149
 C        -0.412643         2.337084         1.558147
 H         0.435112        -0.138397         1.191641
 H        -2.529323         0.002761        -0.093398
 H        -3.049582         0.971756         1.319449
 H        -1.733121         2.030091        -1.395030
 H        -2.228264         3.826167         1.092923
 H        -0.030071         3.961616        -0.947089
 H        -0.599036         5.162949         0.010123
 H         1.502839         2.376588         0.616231
 H         1.628073         2.862441         2.274866
 H        -0.552961         2.143236         2.590607
