19
Iteration:  4850charge 0 multiplicity 1
 O         0.271816         0.275675         0.196142
 C        -0.733350         1.104616         0.657090
 C        -2.147902         0.896683         0.502564
 C        -1.503957         1.987600        -0.254203
 C        -1.326410         3.227476         0.662611
 C        -0.383115         4.389908         0.095095
 O         0.982666         4.145811         0.609644
 C         1.072432         2.988667         1.487978
 C        -0.430018         2.321239         1.589476
 H         0.424033        -0.348356         1.001146
 H        -2.400500         0.061028        -0.184554
 H        -3.035728         1.145140         1.215169
 H        -1.781063         2.044465        -1.305646
 H        -2.274338         3.583861         1.186956
 H        -0.437689         4.498186        -0.965941
 H        -0.768743         5.412722         0.440179
 H         1.789799         2.195448         1.222573
 H         1.099982         3.341185         2.467272
 H        -0.641574         2.110059         2.636651
