19
Iteration:   257charge 0 multiplicity 1
 O         0.246419         0.262370         0.133265
 C        -0.697800         1.233419         0.563637
 C        -2.078776         0.833184         0.643617
 C        -1.741247         2.124137        -0.145200
 C        -1.340514         3.284519         0.761749
 C        -0.404902         4.339118         0.172837
 O         1.013015         3.880018         0.369359
 C         1.020887         3.103492         1.502858
 C        -0.240850         2.355266         1.552993
 H         0.300962        -0.397202         0.952609
 H        -2.225558         0.076314        -0.116596
 H        -2.764209         0.736857         1.557511
 H        -2.266020         2.253900        -1.047569
 H        -2.220119         3.524671         1.251674
 H        -0.566909         4.429102        -0.978644
 H        -0.533169         5.301915         0.580853
 H         1.979525         2.524419         1.608197
 H         1.012100         3.702892         2.393621
 H        -0.453050         2.067695         2.607947
