19
Iteration:   630charge 0 multiplicity 1
 O         0.286806         0.167107         0.423795
 C        -0.613218         1.196223         0.492331
 C        -2.177016         0.991689         0.545402
 C        -1.642566         2.093778        -0.273910
 C        -1.361142         3.223828         0.735153
 C        -0.419682         4.439394         0.399370
 O         0.888014         3.963331         0.281028
 C         1.083593         3.034074         1.353087
 C        -0.221124         2.297735         1.535626
 H        -0.205187        -0.632570         0.798204
 H        -2.751525         0.249476        -0.016799
 H        -2.613944         1.067877         1.489171
 H        -1.781053         1.982368        -1.350698
 H        -2.278753         3.474202         1.333636
 H        -0.778505         4.871858        -0.602981
 H        -0.455997         5.301830         1.086312
 H         1.820249         2.386396         1.017169
 H         1.483503         3.549222         2.355200
 H        -0.405604         2.116858         2.653726
