19
Iteration:   314charge 0 multiplicity 1
 O         0.251220         0.281990         0.272125
 C        -0.631505         1.252527         0.630422
 C        -2.039162         1.023501         0.593658
 C        -1.496886         2.148057        -0.263265
 C        -1.304224         3.168117         0.749907
 C        -0.511469         4.382015         0.307969
 O         0.822839         3.850101         0.260409
 C         1.034658         2.952987         1.346974
 C        -0.337352         2.353501         1.678139
 H         0.049279        -0.394277         0.820186
 H        -2.418759         0.139344         0.042430
 H        -2.565594         1.296284         1.463531
 H        -1.195502         2.130786        -1.378713
 H        -2.222669         3.433084         1.195136
 H        -0.720076         4.950531        -0.652530
 H        -0.481036         5.059845         1.120743
 H         1.606515         2.190780         0.896853
 H         1.481041         3.414461         2.176018
 H        -0.677688         2.072970         2.754690
