19
Iteration:  3801charge 0 multiplicity 1
 O         0.095578         0.031663         0.368362
 C        -0.700209         1.197651         0.524031
 C        -2.151201         0.971191         0.446405
 C        -1.601786         2.062290        -0.303311
 C        -1.209060         3.187812         0.689693
 C        -0.305656         4.236010         0.015450
 O         0.835172         4.353465         0.878347
 C         1.102793         3.059484         1.486761
 C        -0.286977         2.262957         1.515030
 H         0.455935        -0.014369        -0.603105
 H        -2.487426         0.143782        -0.229798
 H        -2.939581         1.253856         1.295662
 H        -1.544766         2.038249        -1.407570
 H        -2.070319         3.476976         1.365211
 H        -0.084282         3.898003        -1.074047
 H        -0.656591         5.221117        -0.133571
 H         1.943630         2.512648         0.859641
 H         1.480293         3.410793         2.468166
 H        -0.561488         1.950453         2.542140
