19
Iteration:  1966
 O         0.317469         0.381846         0.227759
 C        -0.631346         1.186428         0.739342
 C        -2.203784         1.041402         0.479655
 C        -1.421741         2.081561        -0.218632
 C        -1.380594         3.234432         0.739094
 C        -0.440591         4.322381         0.255657
 O         0.844501         3.785020         0.291168
 C         1.027544         2.952983         1.383325
 C        -0.327117         2.386092         1.697442
 H         0.117049        -0.510489         0.702376
 H        -2.619558         0.049754         0.128987
 H        -2.881815         1.416483         1.234481
 H        -1.348259         2.230440        -1.296391
 H        -2.349436         3.662598         1.114670
 H        -0.523105         4.601830        -0.818214
 H        -0.492167         5.203513         0.933825
 H         1.927806         2.265684         1.219633
 H         1.304277         3.609712         2.308378
 H        -0.582181         2.111058         2.744351
