19
Iteration:   676charge 0 multiplicity 1
 O         0.192959         0.227038         0.137046
 C        -0.620511         1.178775         0.748055
 C        -2.169740         0.806259         0.522283
 C        -1.429503         2.043782        -0.092677
 C        -1.329739         3.350888         0.745524
 C        -0.435717         4.441505         0.230267
 O         0.889603         3.956809         0.317884
 C         1.079403         2.955296         1.305168
 C        -0.377300         2.436800         1.744117
 H         0.221075        -0.524912         0.899450
 H        -2.425929         0.010328        -0.159556
 H        -3.032346         0.875784         1.173944
 H        -1.467040         2.162640        -1.251286
 H        -2.191651         3.869592         1.074049
 H        -0.510649         4.926849        -0.788778
 H        -0.650848         5.230773         0.965268
 H         1.655617         2.109534         0.837340
 H         1.548144         3.379877         2.242631
 H        -0.459604         2.234924         2.783289
