19
Iteration:  1913
 O         0.355159         0.370859         0.226332
 C        -0.675799         1.196708         0.617248
 C        -2.138157         0.826651         0.536461
 C        -1.718102         2.119679        -0.198491
 C        -1.348828         3.317903         0.793570
 C        -0.306927         4.416047         0.301034
 O         0.958811         3.699013         0.181758
 C         0.992097         3.017599         1.515648
 C        -0.394960         2.432129         1.607548
 H         0.203222        -0.335182         0.995007
 H        -2.194824        -0.075531        -0.174212
 H        -2.836936         0.658077         1.377211
 H        -1.789375         2.213092        -1.296617
 H        -2.192470         3.840648         1.279254
 H        -0.522357         4.921536        -0.661242
 H        -0.215560         5.223294         1.017029
 H         1.751295         2.313058         1.429717
 H         1.221423         3.717789         2.328656
 H        -0.745869         2.256363         2.579169
