19
Iteration:   834
 O         0.281343         0.209415         0.118140
 C        -0.626909         1.295977         0.538649
 C        -2.122902         0.918467         0.663187
 C        -1.678518         2.005922        -0.192149
 C        -1.356906         3.278203         0.725933
 C        -0.398743         4.394397         0.287199
 O         1.011733         3.857954         0.298056
 C         0.977411         3.089804         1.508814
 C        -0.385599         2.345921         1.604175
 H         0.482565        -0.160165         0.919623
 H        -2.235606        -0.118527         0.203930
 H        -2.660034         1.205296         1.629447
 H        -1.987847         1.917745        -1.257511
 H        -2.263561         3.737921         1.187375
 H        -0.467671         4.671360        -0.748824
 H        -0.390244         5.354850         0.875841
 H         1.889928         2.311743         1.431591
 H         1.305054         3.683549         2.363418
 H        -0.644632         2.145563         2.583806
