19
Iteration:   523
 O         0.308150         0.387508         0.142030
 C        -0.661728         1.258477         0.619127
 C        -2.084998         0.772480         0.649452
 C        -1.733769         2.077654        -0.116029
 C        -1.310805         3.322142         0.747144
 C        -0.271599         4.461988         0.248582
 O         0.931117         3.711470         0.244870
 C         0.940906         3.030887         1.431252
 C        -0.425312         2.387382         1.619899
 H         0.592296        -0.182575         0.909747
 H        -2.137127         0.062589        -0.178318
 H        -2.820855         0.612607         1.394749
 H        -1.828675         1.977719        -1.175918
 H        -2.118743         3.739719         1.249468
 H        -0.465728         4.936867        -0.734851
 H        -0.149758         5.177066         1.123102
 H         1.687059         2.253489         1.400428
 H         1.108845         3.750915         2.311340
 H        -0.519779         2.129884         2.595897
