19
Iteration:  3361charge 0 multiplicity 1
 O         0.207716         0.205462         0.200635
 C        -0.625589         1.156615         0.620450
 C        -2.138087         0.937199         0.396588
 C        -1.516160         2.109382        -0.228258
 C        -1.345643         3.237216         0.743098
 C        -0.376545         4.288789         0.235475
 O         0.914927         3.758449         0.323873
 C         0.931727         3.251057         1.643139
 C        -0.330917         2.368637         1.688469
 H         1.170341         0.472441        -0.029960
 H        -2.116387         0.011534        -0.194122
 H        -2.888442         0.984371         1.222146
 H        -1.632137         2.216440        -1.314296
 H        -2.219735         3.691780         1.153568
 H        -0.571325         4.545434        -0.872236
 H        -0.345971         5.182388         0.862740
 H         1.986315         2.762692         1.897270
 H         0.759573         4.032018         2.458155
 H        -0.684306         2.251744         2.725247
