19
Iteration:  3488charge 0 multiplicity 1
 O         0.099427         0.051389         0.343429
 C        -0.644103         1.154852         0.646982
 C        -2.058425         0.942276         0.490171
 C        -1.566962         2.081268        -0.260600
 C        -1.345612         3.186907         0.634062
 C        -0.405571         4.305521         0.094052
 O         0.933730         4.235350         0.670592
 C         1.035927         3.031175         1.439751
 C        -0.312577         2.322133         1.492073
 H         1.049040         0.352391         0.005102
 H        -2.475176         0.064781        -0.004217
 H        -2.541712         1.280784         1.398685
 H        -1.668409         2.233018        -1.317707
 H        -2.167460         3.648790         1.253039
 H        -0.199224         4.342254        -0.953615
 H        -0.826280         5.384261         0.322763
 H         1.766903         2.270006         0.948080
 H         1.307901         3.172441         2.639375
 H        -0.605204         2.147598         2.549209
