19
Iteration:  2032
 O         0.260708         0.209111         0.291236
 C        -0.652185         1.198459         0.584858
 C        -2.159694         0.995228         0.554509
 C        -1.564176         2.085279        -0.251598
 C        -1.259555         3.206831         0.782874
 C        -0.430236         4.329323         0.230482
 O         0.942247         3.993320         0.363001
 C         1.030506         3.016656         1.424610
 C        -0.349388         2.321054         1.552638
 H         0.037320        -0.593780         0.833841
 H        -2.496353         0.113444        -0.040659
 H        -2.695176         1.367999         1.411144
 H        -1.789432         2.322325        -1.279603
 H        -2.212345         3.451652         1.270836
 H        -0.692130         4.488663        -0.827318
 H        -0.676844         5.305619         0.762903
 H         1.927202         2.421350         1.316731
 H         1.224093         3.538670         2.387909
 H        -0.639708         2.285109         2.642015
