19
Iteration:  3647charge 0 multiplicity 1
 O         0.192009         0.020319         0.328038
 C        -0.734120         1.064840         0.596089
 C        -2.205120         0.990589         0.680764
 C        -1.473985         1.988659        -0.343452
 C        -1.175091         3.167851         0.558061
 C        -0.354582         4.383961         0.057982
 O         0.815193         4.371248         0.868602
 C         1.038513         2.952081         1.398102
 C        -0.271022         2.334991         1.457890
 H         0.407267         0.131830        -0.576042
 H        -2.567608         0.121633         0.061950
 H        -2.898757         1.504840         1.429580
 H        -2.022692         2.134633        -1.288838
 H        -2.114124         3.632246         1.083801
 H        -0.042259         4.199946        -0.973648
 H        -0.708147         5.325377         0.160254
 H         1.804712         2.467299         0.849050
 H         1.509620         3.080068         2.343754
 H        -0.768391         2.316572         2.413743
