19
Iteration:  4503charge 0 multiplicity 1
 O         0.197826         0.141888         0.290564
 C        -0.717298         1.108561         0.675239
 C        -2.199782         0.902064         0.487719
 C        -1.478329         2.032230        -0.286231
 C        -1.285633         3.264146         0.676803
 C        -0.336433         4.205438         0.061500
 O         0.856168         4.304051         0.841988
 C         1.077097         3.044574         1.424809
 C        -0.338896         2.307585         1.497150
 H         0.008429         0.109807        -0.681892
 H        -2.561376         0.145801        -0.185451
 H        -2.883335         1.332233         1.148212
 H        -1.154687         1.974737        -1.349793
 H        -2.021057         3.826974         1.165114
 H        -0.174248         3.927780        -1.042388
 H        -0.832062         5.179137        -0.056892
 H         1.699623         2.312232         0.838937
 H         1.485930         3.322393         2.484420
 H        -0.472662         2.139247         2.633029
