19
Iteration:  4432charge 0 multiplicity 1
 O         0.369203         0.294408         0.250508
 C        -0.690577         1.148736         0.515494
 C        -2.233911         0.948986         0.650970
 C        -1.669333         1.949075        -0.310145
 C        -1.264098         3.255376         0.514195
 C        -0.197479         4.236441         0.033757
 O         0.847207         4.288261         1.014034
 C         1.052802         2.922199         1.396632
 C        -0.461541         2.323842         1.471737
 H         0.087785        -0.624836         0.027327
 H        -2.742333         0.072190         0.257155
 H        -2.607911         1.285252         1.716107
 H        -1.788649         1.597929        -1.316454
 H        -2.059316         3.970970         0.924308
 H         0.161069         4.109882        -0.992033
 H        -0.596780         5.325026         0.046827
 H         1.555507         2.333622         0.590370
 H         1.604262         2.843050         2.281413
 H        -0.894318         2.139483         2.473167
