19
Iteration:  4398
 O         0.128889         0.102862         0.152738
 C        -0.681463         1.137650         0.612253
 C        -2.132327         0.902765         0.444657
 C        -1.496451         2.000005        -0.253226
 C        -1.296431         3.279214         0.666163
 C        -0.280170         4.218274         0.029822
 O         0.872967         4.363832         0.923743
 C         1.059463         3.003180         1.407669
 C        -0.388819         2.369302         1.558287
 H         0.251721        -0.511849         0.995841
 H        -2.345485         0.031615        -0.177382
 H        -2.902497         1.159584         1.353937
 H        -1.429408         1.991757        -1.349002
 H        -2.157178         3.857117         1.228992
 H        -0.054519         3.785137        -0.975734
 H        -0.693895         5.290066         0.014528
 H         1.645722         2.387029         0.691346
 H         1.589835         3.132195         2.320757
 H        -0.733745         2.272584         2.590443
