19
Iteration:  3834
 O         0.194068         0.059929         0.308870
 C        -0.688442         1.103121         0.595880
 C        -2.168719         0.962271         0.578518
 C        -1.523406         1.997008        -0.345269
 C        -1.279985         3.209243         0.584835
 C        -0.211499         4.377319         0.024454
 O         0.836250         4.370834         0.992546
 C         1.039016         2.987774         1.341983
 C        -0.405616         2.322482         1.549741
 H         0.019277        -0.222054        -0.548961
 H        -2.584153         0.162849        -0.063291
 H        -2.916005         1.353607         1.407432
 H        -1.603456         1.820175        -1.420047
 H        -2.115533         3.642212         1.123795
 H         0.091604         3.854458        -0.983109
 H        -0.466721         5.410917        -0.088120
 H         1.617173         2.344070         0.598189
 H         1.749919         2.991632         2.190129
 H        -0.805792         2.025866         2.521656
