19
Iteration:  1403
 O         0.209742         0.275676         0.154224
 C        -0.612483         1.211011         0.670248
 C        -2.167365         1.017074         0.647632
 C        -1.515230         2.002473        -0.234921
 C        -1.321919         3.209155         0.681754
 C        -0.514153         4.379722         0.221593
 O         0.942357         3.940246         0.348343
 C         1.094741         3.026581         1.496686
 C        -0.328376         2.364547         1.613785
 H        -0.082252        -0.699595         0.482578
 H        -2.510755         0.179638         0.052879
 H        -2.803984         1.267207         1.391002
 H        -1.308418         1.987961        -1.283321
 H        -2.284202         3.341075         1.298662
 H        -0.558072         4.597008        -0.774463
 H        -0.676593         5.339399         0.793684
 H         1.776166         2.160559         1.191582
 H         1.458392         3.426649         2.473830
 H        -0.454022         2.199033         2.656365
