19
Iteration:  4996
 O         0.456600         0.368243         0.501529
 C        -0.679099         1.212426         0.585960
 C        -2.135381         0.871894         0.514477
 C        -1.585268         2.104687        -0.429523
 C        -1.321724         3.261754         0.665991
 C        -0.300632         4.486012         0.355468
 O         0.909113         3.867024         0.326338
 C         0.889126         2.893850         1.462158
 C        -0.473602         2.299420         1.574463
 H         0.475632         0.039403        -0.385030
 H        -2.412529        -0.072640         0.140035
 H        -2.664149         1.068523         1.426910
 H        -1.801814         2.077326        -1.480049
 H        -2.367175         3.625304         1.049447
 H        -0.449124         5.047773        -0.663144
 H        -0.540396         5.109859         1.332686
 H         1.556495         2.091267         1.211340
 H         1.113016         3.439248         2.352640
 H        -0.863219         2.025284         2.516895
