19
Iteration:  1135
 O         0.337397         0.359761         0.188749
 C        -0.593366         1.277844         0.660133
 C        -2.122201         0.991006         0.597863
 C        -1.415497         2.162094        -0.261623
 C        -1.387077         3.277935         0.823672
 C        -0.478309         4.388437         0.282271
 O         0.839258         3.678991         0.175227
 C         0.996398         2.918582         1.477406
 C        -0.384334         2.350103         1.681681
 H         0.098162        -0.545632         0.584972
 H        -2.342438         0.136005         0.038304
 H        -2.744398         1.373775         1.442861
 H        -1.471533         2.306061        -1.362423
 H        -2.453913         3.518582         1.218147
 H        -0.838651         4.714916        -0.760596
 H        -0.474940         5.120153         1.134914
 H         1.801001         2.272397         1.327770
 H         1.376045         3.675988         2.195053
 H        -0.549298         2.186747         2.702023
