19
Iteration:  1058charge 0 multiplicity 1
 O         0.352433         0.350660         0.032473
 C        -0.601160         1.233589         0.656000
 C        -2.124763         1.003286         0.729817
 C        -1.518240         2.084909        -0.114469
 C        -1.315488         3.288419         0.725440
 C        -0.474386         4.389191         0.129555
 O         0.954405         3.798865         0.390575
 C         0.939594         2.910785         1.498781
 C        -0.417308         2.356118         1.582919
 H         0.344308        -0.411676         0.520728
 H        -2.542658         0.173152         0.188200
 H        -2.656993         1.224124         1.644655
 H        -1.964507         1.959457        -1.152657
 H        -2.362691         3.523570         1.193342
 H        -0.622492         4.581860        -0.988645
 H        -0.649912         5.422195         0.559619
 H         1.627435         2.165180         1.359006
 H         1.400203         3.482008         2.360707
 H        -0.721395         2.068868         2.534239
