19
Iteration:  4814charge 0 multiplicity 1
 O         0.285635         0.161612         0.255323
 C        -0.621065         1.185069         0.572030
 C        -2.105444         0.894631         0.495260
 C        -1.544801         2.150188        -0.243979
 C        -1.380425         3.270060         0.744336
 C        -0.429933         4.269321        -0.025241
 O         0.896893         4.137593         0.675767
 C         1.055540         2.960026         1.533478
 C        -0.361336         2.366893         1.586979
 H        -0.169420        -0.746457         0.222232
 H        -2.327787         0.182395        -0.301196
 H        -2.975198         1.133013         1.256369
 H        -1.840755         2.203024        -1.272674
 H        -2.166493         3.669616         1.327741
 H        -0.258492         3.945983        -1.011132
 H        -0.624787         5.368598         0.104494
 H         1.974747         2.443787         1.219521
 H         1.357423         3.459762         2.414345
 H        -0.625755         2.180134         2.691560
