19
Iteration:  2809
 O         0.377697         0.359267         0.273481
 C        -0.676332         1.153711         0.669264
 C        -2.106891         0.872280         0.486654
 C        -1.638586         2.143157        -0.148723
 C        -1.418488         3.309582         0.748104
 C        -0.376438         4.315114         0.208534
 O         0.948156         3.889789         0.355136
 C         1.023011         2.907259         1.413295
 C        -0.403584         2.428213         1.612541
 H         0.193308        -0.618313         0.635362
 H        -2.197224        -0.003607        -0.121461
 H        -2.829680         0.832573         1.288211
 H        -1.622983         2.255072        -1.222608
 H        -2.375897         3.820357         1.230235
 H        -0.425260         4.642223        -0.872427
 H        -0.576086         5.272972         0.798520
 H         1.572464         2.189580         0.958549
 H         1.657891         3.371449         2.256097
 H        -0.827576         2.478795         2.607776
