19
Iteration:  1219
 O         0.227699         0.196722         0.229346
 C        -0.637811         1.184207         0.645182
 C        -2.153575         1.033900         0.582480
 C        -1.469206         2.061801        -0.243104
 C        -1.404364         3.241882         0.783516
 C        -0.513843         4.349716         0.246234
 O         0.943479         4.050194         0.355476
 C         1.104578         2.998174         1.395407
 C        -0.291829         2.276422         1.602691
 H         0.039858        -0.551454         0.679631
 H        -2.698543         0.234997         0.211920
 H        -2.675692         1.473968         1.415037
 H        -1.349611         2.109632        -1.383331
 H        -2.317474         3.376628         1.203581
 H        -0.720926         4.377113        -0.812050
 H        -0.733265         5.330147         0.635421
 H         1.875424         2.297543         0.980021
 H         1.535415         3.406616         2.363058
 H        -0.686698         2.019888         2.689211
