19
Iteration:   709
 O         0.339384         0.376329         0.249650
 C        -0.662158         1.235422         0.574827
 C        -2.200199         0.902615         0.589262
 C        -1.588792         2.103807        -0.178987
 C        -1.327972         3.256647         0.805539
 C        -0.398830         4.363566         0.264931
 O         0.935319         3.825264         0.252238
 C         0.993518         2.995837         1.391066
 C        -0.348933         2.267012         1.615916
 H         0.300618        -0.376910         0.747940
 H        -2.562766         0.059535         0.073658
 H        -2.815455         1.275863         1.394392
 H        -1.672175         2.247980        -1.313088
 H        -2.077749         3.761163         1.364673
 H        -0.669685         4.766939        -0.754268
 H        -0.381537         5.212975         1.004441
 H         1.903309         2.377497         1.252005
 H         1.078669         3.716124         2.270957
 H        -0.484278         2.005912         2.660688
