19
Iteration:  4007charge 0 multiplicity 1
 O         0.329584         0.185513         0.330020
 C        -0.733534         1.143468         0.635746
 C        -2.226944         0.845693         0.456468
 C        -1.583493         1.990415        -0.368742
 C        -1.321311         3.292219         0.616668
 C        -0.256276         4.358636         0.160102
 O         0.922425         4.277092         0.853255
 C         1.040369         2.883709         1.343607
 C        -0.424369         2.399482         1.535427
 H         0.171913        -0.666856         0.929166
 H        -2.573000        -0.024986        -0.114594
 H        -2.930616         1.114836         1.249638
 H        -1.585253         2.121480        -1.441568
 H        -2.253011         3.803380         1.134790
 H         0.003235         4.059366        -0.936237
 H        -0.687391         5.379621         0.076813
 H         1.467608         2.446632         0.407894
 H         1.833281         2.865850         2.171617
 H        -0.798944         2.322294         2.549957
