19
Iteration:   559
 O         0.354617         0.387669         0.251841
 C        -0.660914         1.283130         0.679366
 C        -2.152003         1.043344         0.524863
 C        -1.541287         2.127732        -0.176534
 C        -1.321547         3.193751         0.817422
 C        -0.451255         4.285254         0.234399
 O         0.867505         3.773110         0.221123
 C         0.983552         2.982266         1.369451
 C        -0.316524         2.312194         1.695244
 H         0.184695        -0.477511         0.712487
 H        -2.438413         0.315163        -0.270727
 H        -2.846517         1.126382         1.405398
 H        -1.595273         2.267782        -1.293283
 H        -2.202117         3.592377         1.353218
 H        -0.703691         4.594075        -0.761247
 H        -0.602014         5.269663         0.844643
 H         1.797364         2.161163         1.143954
 H         1.404662         3.632035         2.265881
 H        -0.419617         1.989249         2.787165
