19
Iteration:   596charge 0 multiplicity 1
 O         0.261178         0.160566         0.284362
 C        -0.623678         1.125772         0.728082
 C        -2.139207         0.926441         0.509584
 C        -1.506799         2.105193        -0.168853
 C        -1.311777         3.283568         0.748148
 C        -0.414555         4.441679         0.346351
 O         0.892390         3.930958         0.186260
 C         0.998832         3.066534         1.334084
 C        -0.332633         2.351812         1.668342
 H        -0.367933        -0.680295         0.230199
 H        -2.385292         0.299841        -0.344340
 H        -2.818406         0.913750         1.354690
 H        -1.543871         2.094856        -1.232724
 H        -2.274826         3.655611         1.247761
 H        -0.623746         4.931867        -0.667392
 H        -0.468753         5.155383         1.173549
 H         1.750596         2.328394         1.128020
 H         1.334400         3.686950         2.251826
 H        -0.485919         2.309550         2.826555
