19
Iteration:  4762
 O         0.335357         0.318358         0.288121
 C        -0.705417         1.158810         0.635632
 C        -2.148408         0.927567         0.641181
 C        -1.624724         2.010359        -0.266218
 C        -1.296268         3.247382         0.470738
 C        -0.304108         4.289863         0.100436
 O         0.911828         4.175280         0.807366
 C         1.015247         2.881497         1.431192
 C        -0.444351         2.339078         1.500102
 H         0.083431        -0.247600        -0.546911
 H        -2.470157        -0.009215         0.238472
 H        -2.598538         0.947683         1.724868
 H        -1.787970         1.792508        -1.283834
 H        -2.187815         3.867426         0.907823
 H        -0.044514         4.232988        -1.021348
 H        -0.697628         5.362177         0.244893
 H         1.579095         2.335490         0.680320
 H         1.519542         3.207463         2.357613
 H        -0.641620         2.143928         2.524877
