19
Iteration:  3597charge 0 multiplicity 1
 O         0.176782         0.158766         0.394770
 C        -0.768838         1.162643         0.709592
 C        -2.185078         0.874558         0.437763
 C        -1.621523         2.087472        -0.245564
 C        -1.271001         3.239660         0.648749
 C        -0.278575         4.254286         0.010295
 O         0.814085         4.295439         0.934613
 C         1.098372         2.922230         1.125036
 C        -0.325434         2.329676         1.544236
 H         1.123156         0.402196         0.755420
 H        -2.291505        -0.012800        -0.195763
 H        -2.788640         0.959114         1.317472
 H        -1.554720         1.976623        -1.335853
 H        -2.045692         3.816929         1.060609
 H         0.163627         4.078101        -1.001246
 H        -0.799323         5.321539        -0.114989
 H         1.793469         2.588341         0.350207
 H         1.784382         2.727951         1.989127
 H        -0.420608         2.210511         2.660784
