19
Iteration:  4466
 O         0.301634         0.238002         0.350355
 C        -0.726830         1.199264         0.553458
 C        -2.140923         0.873197         0.542860
 C        -1.695591         2.045680        -0.252144
 C        -1.238653         3.331943         0.618128
 C        -0.187472         4.185170        -0.034520
 O         0.782159         4.258249         0.977250
 C         1.052083         2.915999         1.365023
 C        -0.401636         2.341297         1.487473
 H         0.195343        -0.145480        -0.488474
 H        -2.478649         0.017114        -0.087834
 H        -2.723894         0.939300         1.498184
 H        -1.807186         1.941706        -1.336093
 H        -2.075313         3.870596         1.074867
 H         0.258389         3.804054        -0.926096
 H        -0.679524         5.208662        -0.138527
 H         1.625274         2.523525         0.525818
 H         1.714699         2.884759         2.247966
 H        -0.695626         2.094395         2.546335
