19
Iteration:  4490charge 0 multiplicity 1
 O         0.237255         0.157749         0.270687
 C        -0.734676         1.124473         0.677363
 C        -2.231168         0.938323         0.437575
 C        -1.538615         2.035678        -0.253424
 C        -1.261669         3.224614         0.713234
 C        -0.256142         4.205669         0.018321
 O         0.860288         4.363091         0.844939
 C         1.051561         3.002972         1.382781
 C        -0.384445         2.331519         1.595430
 H         0.130148        -0.084424        -0.653467
 H        -2.214763        -0.025658        -0.116001
 H        -2.935005         0.887246         1.181790
 H        -1.637230         2.076682        -1.370043
 H        -2.160456         3.551341         1.135262
 H         0.127181         3.629465        -0.848534
 H        -0.631823         5.218669        -0.260150
 H         1.737107         2.528460         0.662807
 H         1.639602         3.070229         2.379555
 H        -0.747272         2.245480         2.702143
