19
Iteration:   635charge 0 multiplicity 1
 O         0.304117         0.181959         0.410326
 C        -0.651453         1.233124         0.522651
 C        -2.203041         1.028656         0.519884
 C        -1.607955         2.062389        -0.236903
 C        -1.330481         3.205580         0.722909
 C        -0.453921         4.389640         0.353606
 O         0.873010         3.976151         0.315608
 C         1.102332         2.997464         1.357592
 C        -0.213857         2.301448         1.549046
 H        -0.055042        -0.608186         0.798800
 H        -2.725823         0.250688        -0.036651
 H        -2.634181         1.378693         1.527654
 H        -1.893999         2.108571        -1.319481
 H        -2.254729         3.512603         1.193374
 H        -0.785181         4.812297        -0.566131
 H        -0.520846         5.153149         1.159888
 H         1.954161         2.375353         0.875192
 H         1.355654         3.556600         2.194722
 H        -0.357395         2.084635         2.579898
