19
Iteration:  1168charge 0 multiplicity 1
 O         0.395795         0.256500         0.274912
 C        -0.729776         1.200580         0.652218
 C        -2.208820         0.872406         0.543210
 C        -1.540082         2.096685        -0.199020
 C        -1.369690         3.302889         0.802945
 C        -0.381219         4.430533         0.317140
 O         0.964458         3.894141         0.259352
 C         1.025667         2.959098         1.318140
 C        -0.386112         2.384316         1.585676
 H         0.212721        -0.561751         0.892067
 H        -2.522837         0.012015        -0.037237
 H        -3.011828         0.973591         1.328342
 H        -1.654055         2.211310        -1.259906
 H        -2.420609         3.567104         1.133123
 H        -0.700802         5.149948        -0.526458
 H        -0.422746         5.201330         1.170071
 H         1.744831         2.206199         1.152798
 H         1.119030         3.578730         2.233227
 H        -0.407490         2.068371         2.604855
