19
Iteration:  4179
 O         0.316660         0.205804         0.260319
 C        -0.695052         1.206503         0.575522
 C        -2.214770         0.901192         0.545915
 C        -1.626810         2.041535        -0.313376
 C        -1.277603         3.303083         0.551397
 C        -0.275778         4.230419         0.071512
 O         0.936731         4.268961         0.927428
 C         0.962670         2.919695         1.353132
 C        -0.427045         2.330915         1.549559
 H         0.434147        -0.244341         1.091263
 H        -2.362528         0.053449        -0.135237
 H        -2.883216         0.984872         1.356097
 H        -1.776490         1.952744        -1.385309
 H        -2.108270         3.642905         1.091693
 H        -0.084475         3.997473        -1.051749
 H        -0.496342         5.389252         0.041475
 H         1.520635         2.178578         0.627832
 H         1.607696         2.881850         2.205910
 H        -0.643415         2.156854         2.658092
