19
Iteration:  4229charge 0 multiplicity 1
 O         0.216887         0.173111         0.315638
 C        -0.680442         1.077130         0.683414
 C        -2.160655         0.935301         0.463376
 C        -1.549506         1.999058        -0.368640
 C        -1.244809         3.193148         0.620065
 C        -0.312724         4.349783         0.101410
 O         0.927713         4.332174         0.795675
 C         1.059207         2.944618         1.459852
 C        -0.428154         2.342114         1.523560
 H        -0.236323        -0.675971        -0.098561
 H        -2.432149         0.005025        -0.052877
 H        -2.885011         1.260613         1.351228
 H        -1.765637         2.236913        -1.406068
 H        -2.253425         3.516275         1.108741
 H        -0.150982         4.270990        -0.994293
 H        -0.754169         5.282991         0.285399
 H         1.615905         2.316665         0.763507
 H         1.696612         3.066883         2.438744
 H        -0.727939         2.327305         2.537515
