19
Iteration:  4871
 O         0.356750         0.239635         0.180119
 C        -0.703200         1.141479         0.592146
 C        -2.232392         0.887895         0.600489
 C        -1.560469         1.973287        -0.308275
 C        -1.281360         3.245573         0.509086
 C        -0.320499         4.387258         0.278819
 O         0.939874         4.044621         0.558793
 C         0.963483         2.995166         1.493066
 C        -0.452824         2.421990         1.590163
 H         0.802739        -0.090467         1.010086
 H        -2.531956        -0.049568         0.044724
 H        -2.995146         1.225747         1.499825
 H        -1.246730         1.868659        -1.349065
 H        -2.131528         3.628399         1.099235
 H        -0.388428         4.794255        -0.693743
 H        -0.802070         5.318215         0.815557
 H         1.640514         2.171763         1.082792
 H         1.387954         3.348754         2.437133
 H        -0.822145         2.380217         2.651432
