19
Iteration:  1766charge 0 multiplicity 1
 O         0.228519         0.301807         0.265466
 C        -0.669495         1.182457         0.729509
 C        -2.151969         0.878707         0.434156
 C        -1.498429         2.149594        -0.181626
 C        -1.338475         3.285872         0.791930
 C        -0.380394         4.353548         0.292685
 O         0.912767         3.832639         0.243966
 C         1.054845         3.044880         1.371861
 C        -0.385039         2.354396         1.627862
 H         0.188198        -0.512939         0.707679
 H        -2.164885         0.042811        -0.280616
 H        -2.867025         0.909345         1.201544
 H        -1.504704         2.232713        -1.249441
 H        -2.246098         3.718627         1.335803
 H        -0.708341         4.960150        -0.561838
 H        -0.258438         5.084681         1.139517
 H         1.772236         2.141169         1.281893
 H         1.174138         3.666886         2.205072
 H        -0.607463         2.385346         2.756469
