19
Iteration:  4571charge 0 multiplicity 1
 O         0.211674         0.153345         0.328189
 C        -0.724503         1.118464         0.665920
 C        -2.143967         0.865485         0.525490
 C        -1.634707         2.042090        -0.351759
 C        -1.227381         3.273738         0.576438
 C        -0.313818         4.324352         0.111274
 O         0.890167         4.263027         0.828183
 C         1.031010         2.950633         1.340538
 C        -0.348304         2.316658         1.549428
 H         1.037640         0.296050         0.737566
 H        -2.396708         0.059977        -0.151069
 H        -2.987244         1.198454         1.200205
 H        -1.649832         1.962690        -1.413937
 H        -2.115109         3.655133         1.092729
 H        -0.219521         4.411407        -1.030717
 H        -0.744660         5.289298         0.314998
 H         1.512118         2.486226         0.401773
 H         1.633864         2.923689         2.278976
 H        -0.753632         2.137119         2.570567
