19
Iteration:  2540charge 0 multiplicity 1
 O         0.342101         0.278647         0.233193
 C        -0.638772         1.200196         0.644718
 C        -2.157923         1.015679         0.604842
 C        -1.583615         2.035954        -0.215191
 C        -1.379922         3.223082         0.681754
 C        -0.390386         4.347663         0.258576
 O         0.941953         3.831134         0.253808
 C         0.968832         2.984789         1.512386
 C        -0.421720         2.383326         1.663128
 H         0.967977         0.763357        -0.445278
 H        -2.388089        -0.017425         0.210231
 H        -2.747542         1.387522         1.502584
 H        -1.531753         1.920313        -1.290907
 H        -2.225995         3.790930         1.290576
 H        -0.627253         4.767363        -0.755317
 H        -0.544008         5.144081         0.995280
 H         1.670488         2.263924         1.259394
 H         1.364842         3.550756         2.411870
 H        -0.632343         2.149761         2.714705
