19
Iteration:  3058charge 0 multiplicity 1
 O         0.395243         0.379144         0.325550
 C        -0.716800         1.210572         0.651913
 C        -2.137894         0.852931         0.522230
 C        -1.632205         1.996560        -0.288134
 C        -1.337367         3.265286         0.640575
 C        -0.331081         4.382709         0.341413
 O         0.990645         3.892828         0.391072
 C         0.987229         2.881300         1.475013
 C        -0.480806         2.446183         1.571063
 H         0.266656         0.221082        -0.675270
 H        -2.389644         0.031327        -0.148878
 H        -2.844451         1.217519         1.239959
 H        -1.767098         2.046747        -1.397881
 H        -2.213193         3.683737         1.049672
 H        -0.445687         4.722863        -0.630562
 H        -0.502109         5.143079         1.146913
 H         1.784766         2.104180         1.395263
 H         1.140008         3.361487         2.450104
 H        -0.798198         2.462789         2.632814
