19
Iteration:  1356charge 0 multiplicity 1
 O         0.388890         0.362593         0.233037
 C        -0.696665         1.260522         0.602747
 C        -2.146556         0.770961         0.481007
 C        -1.716017         2.108426        -0.117676
 C        -1.318071         3.374891         0.833497
 C        -0.349399         4.402005         0.256966
 O         0.953741         3.724617         0.156782
 C         0.998338         2.997854         1.495958
 C        -0.399381         2.398494         1.655808
 H         0.364054        -0.428674         0.896334
 H        -2.158382        -0.014839        -0.256515
 H        -2.929222         0.629376         1.278491
 H        -1.869350         2.274620        -1.224544
 H        -2.220695         3.868612         1.344990
 H        -0.468971         4.951854        -0.767802
 H        -0.222549         5.202724         0.979665
 H         1.833416         2.249781         1.487413
 H         1.151196         3.814989         2.286690
 H        -0.814089         2.071109         2.718764
