19
Iteration:  3088
 O         0.439676         0.361980         0.331085
 C        -0.704898         1.204404         0.559096
 C        -2.204840         0.924521         0.546869
 C        -1.510236         2.054961        -0.254683
 C        -1.334741         3.279899         0.714735
 C        -0.380818         4.421409         0.289150
 O         0.949186         3.830254         0.337506
 C         0.949415         2.903206         1.537316
 C        -0.438027         2.312840         1.572412
 H         0.328440        -0.127770        -0.532068
 H        -2.639450         0.151687        -0.100748
 H        -2.880746         1.416961         1.255816
 H        -1.473247         2.202042        -1.361477
 H        -2.377343         3.725653         1.125845
 H        -0.615601         4.758193        -0.761035
 H        -0.547192         5.336139         0.915781
 H         1.782809         2.332198         1.587620
 H         0.954928         3.577545         2.463476
 H        -0.644014         2.105002         2.625735
