19
Iteration:  3381charge 0 multiplicity 1
 O         0.247739         0.114832         0.234856
 C        -0.636552         1.205113         0.548073
 C        -2.084273         0.880299         0.550455
 C        -1.552367         2.117947        -0.291416
 C        -1.320509         3.223654         0.727316
 C        -0.369180         4.420062         0.217669
 O         0.995257         3.805797         0.355801
 C         0.886321         3.242200         1.669298
 C        -0.417190         2.316550         1.601395
 H         0.893691         0.545946        -0.489541
 H        -2.511071         0.095164        -0.055085
 H        -2.796775         1.130602         1.364349
 H        -1.587875         2.118580        -1.369688
 H        -2.237063         3.695522         1.266768
 H        -0.402745         4.783929        -0.841161
 H        -0.497505         5.160828         0.951820
 H         1.847098         2.611541         1.929042
 H         0.608283         4.016307         2.378951
 H        -0.665845         2.001050         2.630720
