19
Iteration:  2179charge 0 multiplicity 1
 O         0.338043         0.379478         0.226138
 C        -0.696983         1.191592         0.663562
 C        -2.166394         0.868789         0.514015
 C        -1.599702         2.127499        -0.145270
 C        -1.401231         3.258884         0.775997
 C        -0.400167         4.406543         0.158065
 O         1.019465         3.856104         0.267821
 C         1.004199         2.997555         1.513082
 C        -0.352929         2.299537         1.643286
 H         0.289427        -0.529171         0.434270
 H        -2.298760        -0.101081        -0.100757
 H        -2.860260         0.956794         1.387727
 H        -1.818078         2.263220        -1.200637
 H        -2.266963         3.822437         1.268466
 H        -0.709731         4.649852        -0.884948
 H        -0.422358         5.315201         0.857949
 H         1.694901         2.202235         1.318247
 H         1.347768         3.550081         2.404335
 H        -0.699999         2.074227         2.625460
