19
Iteration:  2262charge 0 multiplicity 1
 O         0.237357         0.217039         0.146179
 C        -0.687667         1.210072         0.731515
 C        -2.182539         0.923828         0.459013
 C        -1.487685         2.090026        -0.186676
 C        -1.331326         3.224375         0.803984
 C        -0.428148         4.417512         0.247921
 O         0.968278         3.877648         0.252891
 C         0.994868         3.103852         1.438062
 C        -0.321945         2.304987         1.733691
 H         0.500507        -0.459413         0.916975
 H        -2.350137         0.225093        -0.354575
 H        -2.890752         1.078414         1.208700
 H        -1.435682         2.087437        -1.326720
 H        -2.256850         3.533360         1.266971
 H        -0.870616         4.557920        -0.722536
 H        -0.479709         5.410001         0.773895
 H         1.870362         2.430219         1.394455
 H         1.059093         3.764020         2.361095
 H        -0.490572         2.332605         2.849571
