19
Iteration:   381
 O         0.279491         0.278962         0.280192
 C        -0.620919         1.249183         0.646574
 C        -2.126503         0.970756         0.511997
 C        -1.434154         2.134161        -0.177201
 C        -1.384196         3.277017         0.828026
 C        -0.463385         4.364533         0.317837
 O         0.791865         3.798654         0.242717
 C         1.080401         2.983498         1.317020
 C        -0.332194         2.358815         1.628285
 H         0.044795        -0.571631         0.862582
 H        -2.282015         0.226068        -0.233059
 H        -2.902975         1.066797         1.242945
 H        -1.261688         2.315046        -1.257837
 H        -2.276180         3.536915         1.377845
 H        -0.665033         4.826726        -0.643789
 H        -0.585717         5.103689         1.099509
 H         1.705725         2.234521         0.916616
 H         1.515582         3.520171         2.123373
 H        -0.453550         2.217908         2.760551
