19
Iteration:  2754charge 0 multiplicity 1
 O         0.281609         0.074450         0.301434
 C        -0.618326         1.167497         0.578099
 C        -2.148111         0.921519         0.639971
 C        -1.579202         2.089895        -0.274251
 C        -1.400369         3.277109         0.769443
 C        -0.385335         4.450537         0.235792
 O         0.944270         3.848652         0.279093
 C         1.011782         3.131952         1.489104
 C        -0.349409         2.375758         1.629890
 H         0.865864         0.325791        -0.542077
 H        -2.436467         0.214438        -0.120561
 H        -2.911293         1.145980         1.345067
 H        -1.764341         2.056045        -1.330820
 H        -2.469266         3.576816         1.196507
 H        -0.527924         4.879426        -0.787453
 H        -0.523205         5.160638         1.045250
 H         1.870298         2.650601         1.556175
 H         1.144516         3.824689         2.341450
 H        -0.621567         2.185174         2.684104
