19
Iteration:  3388charge 0 multiplicity 1
 O         0.250202         0.159973         0.230256
 C        -0.603008         1.146919         0.535936
 C        -2.093484         0.909551         0.558821
 C        -1.558604         2.074070        -0.273942
 C        -1.321045         3.252488         0.716610
 C        -0.331995         4.401524         0.198543
 O         0.982878         3.862812         0.387267
 C         0.830176         3.159716         1.614701
 C        -0.420632         2.334367         1.614757
 H         0.948792         0.252260        -0.484795
 H        -2.297738        -0.022015         0.039135
 H        -2.690631         1.321504         1.369608
 H        -1.782702         2.146841        -1.336052
 H        -2.252489         3.661506         1.213744
 H        -0.441274         4.799861        -0.782225
 H        -0.348459         5.318028         0.922554
 H         1.682739         2.641867         1.899128
 H         0.799788         3.826816         2.535620
 H        -0.752754         2.106818         2.646546
