19
Iteration:  1987
 O         0.259235         0.215602         0.224465
 C        -0.672247         1.152252         0.682533
 C        -2.116794         0.921843         0.593902
 C        -1.498117         2.094482        -0.263088
 C        -1.286506         3.300950         0.708164
 C        -0.400530         4.437835         0.335940
 O         0.946729         3.870402         0.211884
 C         0.960840         3.057723         1.443324
 C        -0.403814         2.378583         1.651118
 H         0.048347        -0.617359         0.748689
 H        -2.398315         0.102021        -0.122407
 H        -2.881822         1.026190         1.341174
 H        -1.438576         1.967059        -1.343344
 H        -2.243454         3.518321         1.209549
 H        -0.691865         4.924701        -0.625175
 H        -0.322510         5.200957         1.164856
 H         1.812497         2.285170         1.434331
 H         1.231335         3.823690         2.221029
 H        -0.790190         2.044324         2.648453
