19
Iteration:  1421charge 0 multiplicity 1
 O         0.145760         0.157859         0.096120
 C        -0.701519         1.115486         0.751335
 C        -2.145747         0.871972         0.578973
 C        -1.423434         2.067182        -0.202789
 C        -1.287619         3.265837         0.739109
 C        -0.357835         4.372751         0.229617
 O         0.940666         4.060239         0.370053
 C         1.035614         3.083831         1.394683
 C        -0.349110         2.354343         1.655093
 H        -0.006550        -0.691634         0.701481
 H        -2.326690        -0.083084         0.125673
 H        -2.899163         1.222566         1.366326
 H        -1.523931         2.051170        -1.306388
 H        -2.155766         3.787650         1.165029
 H        -0.828869         4.684665        -0.813568
 H        -0.622722         5.193510         0.880493
 H         1.784574         2.411005         1.016396
 H         1.147241         3.647124         2.318804
 H        -0.579684         2.484699         2.819467
