19
Iteration:    95
 O         0.244000         0.081862         0.257757
 C        -0.649403         1.160003         0.682708
 C        -2.075874         0.854348         0.563329
 C        -1.560794         2.103778        -0.181356
 C        -1.337365         3.298190         0.757418
 C        -0.465901         4.446137         0.337731
 O         0.920730         4.026862         0.210858
 C         1.066990         3.012818         1.361908
 C        -0.339455         2.381918         1.576618
 H         0.042230        -0.642015         0.985105
 H        -2.382440         0.013386        -0.076345
 H        -2.868821         0.962847         1.302801
 H        -1.554104         2.221080        -1.253772
 H        -2.261380         3.753847         1.219489
 H        -0.777668         5.043022        -0.551118
 H        -0.648625         5.224463         1.123325
 H         1.997337         2.436401         1.217087
 H         1.395039         3.692701         2.179081
 H        -0.621334         2.239170         2.657277
