19
Iteration:  3456charge 0 multiplicity 1
 O         0.251917         0.184589         0.354141
 C        -0.655748         1.162312         0.684100
 C        -2.174876         0.838572         0.377174
 C        -1.604704         2.116907        -0.196542
 C        -1.327231         3.286409         0.730316
 C        -0.378585         4.313235         0.005452
 O         0.935301         4.116126         0.616530
 C         1.005799         2.930323         1.421912
 C        -0.361213         2.336171         1.608670
 H         0.979239         0.722760         0.134926
 H        -2.417930         0.075528        -0.354305
 H        -2.792445         0.997620         1.243516
 H        -1.677253         2.381600        -1.244461
 H        -2.195882         3.783458         1.338428
 H        -0.327718         4.173091        -1.066215
 H        -0.663728         5.392237         0.276732
 H         1.706447         2.207933         1.010167
 H         1.624700         3.113672         2.393469
 H        -0.666421         2.305669         2.669412
