19
Iteration:  1762charge 0 multiplicity 1
 O         0.255119         0.285542         0.281857
 C        -0.685960         1.170667         0.728459
 C        -2.126657         0.874305         0.419331
 C        -1.525223         2.207042        -0.162855
 C        -1.351347         3.264151         0.821381
 C        -0.393796         4.365315         0.318097
 O         0.957002         3.824413         0.208220
 C         1.014716         3.020726         1.360665
 C        -0.400407         2.382324         1.612734
 H         0.237549        -0.607837         0.784137
 H        -2.170890         0.089880        -0.328954
 H        -2.946389         0.929712         1.159136
 H        -1.560468         2.220300        -1.291258
 H        -2.117094         3.730052         1.345672
 H        -0.627618         4.859249        -0.605329
 H        -0.400352         5.078476         1.133711
 H         1.828034         2.322831         1.273554
 H         1.159016         3.704712         2.289533
 H        -0.560318         2.272216         2.708509
