19
Iteration:   689charge 0 multiplicity 1
 O         0.228200         0.261782         0.154337
 C        -0.741313         1.188758         0.757798
 C        -2.121325         0.826482         0.554436
 C        -1.560991         2.116245        -0.175992
 C        -1.359903         3.287666         0.752034
 C        -0.409005         4.408694         0.278947
 O         0.939900         3.900945         0.278080
 C         1.065135         2.991596         1.385271
 C        -0.328826         2.443410         1.679161
 H         0.375511        -0.537993         0.647709
 H        -1.945665         0.043898        -0.152959
 H        -3.010400         0.796625         1.272550
 H        -1.467469         2.181413        -1.283444
 H        -2.265472         3.552835         1.244366
 H        -0.643424         4.729004        -0.731191
 H        -0.466605         5.247333         0.932387
 H         1.789348         2.121062         1.016048
 H         1.654516         3.404847         2.175749
 H        -0.628417         2.481243         2.667882
