19
Iteration:  2350
 O         0.353389         0.381508         0.293564
 C        -0.677000         1.202503         0.666441
 C        -2.176831         0.872000         0.564099
 C        -1.545789         2.132387        -0.222688
 C        -1.317461         3.249299         0.750548
 C        -0.405197         4.316481         0.212341
 O         0.958714         3.859909         0.281240
 C         1.023942         3.033940         1.444089
 C        -0.432748         2.293509         1.695468
 H        -0.116384        -0.301832        -0.294240
 H        -2.428382         0.044850        -0.139620
 H        -2.956542         1.064760         1.224522
 H        -1.675974         2.303912        -1.281908
 H        -2.295729         3.676468         1.112102
 H        -0.528879         4.786106        -0.765567
 H        -0.511115         5.178954         0.957027
 H         1.622697         2.283312         1.040770
 H         1.438665         3.482064         2.370425
 H        -0.550263         2.191716         2.751529
