19
Iteration:  3172
 O         0.324516         0.334303         0.222310
 C        -0.649170         1.216816         0.635454
 C        -2.180784         0.967348         0.520164
 C        -1.398052         2.046683        -0.376366
 C        -1.391916         3.228315         0.643800
 C        -0.405107         4.435125         0.361262
 O         0.903794         3.786633         0.416065
 C         0.983166         2.962115         1.516768
 C        -0.494780         2.420361         1.594386
 H         0.840291        -0.014020         0.931771
 H        -2.485643         0.001815         0.097639
 H        -2.847239         1.323826         1.329444
 H        -1.236125         1.991890        -1.464747
 H        -2.300613         3.566003         0.994246
 H        -0.528185         4.766102        -0.726681
 H        -0.473921         5.122689         1.193286
 H         1.668974         2.105958         1.115668
 H         1.428834         3.499380         2.384144
 H        -0.671956         2.154186         2.671116
