19
Iteration:  1091charge 0 multiplicity 1
 O         0.305818         0.428352         0.199029
 C        -0.722695         1.276390         0.635012
 C        -2.207878         0.773432         0.470069
 C        -1.723866         2.089607        -0.079016
 C        -1.335024         3.278961         0.844013
 C        -0.389664         4.324255         0.205269
 O         1.051003         3.795816         0.260553
 C         1.065092         3.082564         1.441094
 C        -0.306027         2.349065         1.623468
 H         0.237522        -0.338252         0.798547
 H        -2.172553         0.044284        -0.289939
 H        -2.959831         0.704629         1.273937
 H        -1.906967         2.198137        -1.183873
 H        -2.230085         3.635828         1.478818
 H        -0.558300         4.486812        -0.901327
 H        -0.399719         5.192111         0.908376
 H         1.796224         2.353665         1.459770
 H         1.083971         3.811008         2.326940
 H        -0.541713         2.012238         2.579891
