19
Iteration:  3844charge 0 multiplicity 1
 O         0.180603         0.153185         0.330079
 C        -0.681010         1.162831         0.579311
 C        -2.174912         0.901934         0.614006
 C        -1.544758         1.958226        -0.329100
 C        -1.276853         3.236408         0.516441
 C        -0.199347         4.342252         0.070676
 O         0.856162         4.347353         1.022740
 C         1.001041         2.919283         1.316700
 C        -0.377842         2.317663         1.498327
 H         0.047996        -0.312985        -0.509059
 H        -2.636014         0.048814         0.103312
 H        -2.783184         1.229612         1.529209
 H        -1.385849         1.959639        -1.412887
 H        -2.152098         3.709729         0.808452
 H         0.383622         4.134472        -0.937236
 H        -0.678445         5.280574        -0.041302
 H         1.295627         2.517902         0.362552
 H         1.589726         2.779605         2.230527
 H        -0.618299         2.366130         2.548177
