19
Iteration:  4995
 O         0.458304         0.372259         0.503978
 C        -0.674333         1.215094         0.594010
 C        -2.126017         0.879261         0.502780
 C        -1.587132         2.106425        -0.416638
 C        -1.321007         3.267356         0.660987
 C        -0.302484         4.475822         0.361050
 O         0.902933         3.861048         0.324760
 C         0.884416         2.891551         1.458581
 C        -0.478594         2.293821         1.572085
 H         0.497048         0.012113        -0.412078
 H        -2.424960        -0.107183         0.133226
 H        -2.676946         1.098796         1.432919
 H        -1.779998         2.075222        -1.477984
 H        -2.345105         3.652926         1.068488
 H        -0.421527         5.041103        -0.631894
 H        -0.537853         5.122654         1.314330
 H         1.535661         2.097102         1.172326
 H         1.117469         3.468003         2.313040
 H        -0.863025         2.030213         2.529514
