19
Iteration:   994charge 0 multiplicity 1
 O         0.283167         0.185989         0.229019
 C        -0.677615         1.140767         0.584063
 C        -2.136312         0.904965         0.481071
 C        -1.631750         2.189304        -0.155294
 C        -1.268186         3.264892         0.873130
 C        -0.469855         4.409837         0.205353
 O         0.946060         3.862063         0.252436
 C         1.046448         3.128218         1.459351
 C        -0.357433         2.290488         1.623571
 H         0.414561        -0.356036         0.947202
 H        -2.200059         0.023730        -0.185875
 H        -2.740912         0.945373         1.392655
 H        -1.779999         2.553680        -1.220531
 H        -2.125401         3.837924         1.406654
 H        -0.745262         4.622850        -0.862235
 H        -0.524598         5.345715         0.800241
 H         1.945658         2.499150         1.461800
 H         1.114468         3.612966         2.443475
 H        -0.478350         1.973251         2.738754
