19
Iteration:   398
 O         0.365710         0.240964         0.191907
 C        -0.652476         1.172771         0.688790
 C        -2.077469         1.045640         0.581807
 C        -1.472081         2.085663        -0.260595
 C        -1.325651         3.284381         0.791550
 C        -0.497556         4.478053         0.312844
 O         0.841510         3.844124         0.205226
 C         0.990664         2.903024         1.408783
 C        -0.355877         2.344541         1.713719
 H         0.156362        -0.724322         0.476296
 H        -2.623413         0.112760         0.204624
 H        -2.640170         1.355575         1.521621
 H        -1.702258         2.122684        -1.353336
 H        -2.344113         3.699262         1.134101
 H        -0.825630         4.854960        -0.725055
 H        -0.465749         5.450960         0.909957
 H         1.722501         2.094719         1.046715
 H         1.352081         3.513145         2.341226
 H        -0.642529         2.162518         2.730558
