19
Iteration:  1344
 O         0.317086         0.465487         0.203399
 C        -0.676822         1.242979         0.691334
 C        -2.122886         0.791124         0.445077
 C        -1.638353         2.123481        -0.176173
 C        -1.362988         3.315104         0.795019
 C        -0.284327         4.348801         0.276549
 O         0.852106         3.627409         0.235196
 C         1.059741         3.053670         1.435536
 C        -0.417270         2.405880         1.703070
 H         0.288641        -0.295279         0.685190
 H        -2.144608        -0.076738        -0.246824
 H        -2.805195         0.750857         1.369781
 H        -1.741069         2.337721        -1.272581
 H        -2.231414         3.880215         1.252036
 H        -0.609859         4.622944        -0.857612
 H        -0.319527         5.199710         0.928123
 H         1.908110         2.345096         1.334389
 H         1.331456         3.787778         2.304501
 H        -0.460715         2.359665         2.923829
