19
Iteration:  4396charge 0 multiplicity 1
 O         0.131892         0.079218         0.155204
 C        -0.692465         1.145456         0.603967
 C        -2.143836         0.915145         0.443128
 C        -1.499949         2.002997        -0.258581
 C        -1.301130         3.276513         0.666695
 C        -0.274880         4.223412         0.039614
 O         0.873590         4.368656         0.912176
 C         1.059942         3.005817         1.408712
 C        -0.383385         2.362995         1.573852
 H         0.257360        -0.435805         0.983047
 H        -2.294029         0.001622        -0.197493
 H        -2.888516         1.085908         1.352770
 H        -1.355730         2.073668        -1.359906
 H        -2.191576         3.787646         1.251288
 H        -0.036349         3.749520        -0.900634
 H        -0.672627         5.220589         0.019080
 H         1.624086         2.407138         0.652670
 H         1.630224         3.239574         2.325227
 H        -0.727422         2.302613         2.571976
