19
Iteration:   174
 O         0.341748         0.484503         0.208878
 C        -0.631792         1.263061         0.643242
 C        -2.039068         0.862319         0.565356
 C        -1.734738         2.122260        -0.112473
 C        -1.446040         3.314541         0.780729
 C        -0.368963         4.328205         0.231797
 O         0.950360         3.690706         0.172359
 C         1.025755         2.934531         1.482140
 C        -0.383194         2.384737         1.605914
 H         0.576835        -0.149365         1.019534
 H        -2.252561         0.073171        -0.106618
 H        -2.579325         0.852950         1.472420
 H        -1.946822         2.114942        -1.180836
 H        -2.325749         3.700903         1.425171
 H        -0.548245         4.704196        -0.717491
 H        -0.356054         5.157309         1.040927
 H         1.679748         2.157999         1.255684
 H         1.385875         3.693869         2.225855
 H        -0.758689         2.150045         2.583325
