19
Iteration:  1211charge 0 multiplicity 1
 O         0.201220         0.189766         0.251777
 C        -0.636969         1.214337         0.622791
 C        -2.160877         0.977375         0.553081
 C        -1.476857         2.084035        -0.246142
 C        -1.405182         3.268850         0.754270
 C        -0.527551         4.341458         0.266625
 O         0.944743         4.025509         0.375948
 C         1.124332         2.954185         1.397289
 C        -0.253232         2.326666         1.597053
 H         0.028861        -0.535778         0.825175
 H        -2.419891        -0.011284         0.122702
 H        -2.818205         1.226123         1.414407
 H        -1.491267         2.239935        -1.308722
 H        -2.288273         3.592937         1.309980
 H        -0.743816         4.470630        -0.890529
 H        -0.864960         5.301317         0.671966
 H         1.825895         2.297509         0.955244
 H         1.456986         3.495233         2.297236
 H        -0.370667         2.252786         2.707650
