19
Iteration:    54
 O         0.293188         0.235273         0.306627
 C        -0.713618         1.217382         0.622567
 C        -2.178040         0.973757         0.655736
 C        -1.547829         2.107885        -0.280964
 C        -1.332412         3.221663         0.677265
 C        -0.545821         4.330936         0.277473
 O         0.919009         4.050792         0.345480
 C         1.148878         2.924896         1.331338
 C        -0.270826         2.318753         1.575853
 H         0.192134        -0.408885         0.922916
 H        -2.456496         0.061736         0.148305
 H        -2.767099         1.225302         1.533160
 H        -1.505083         2.051692        -1.348670
 H        -2.292523         3.479918         1.294997
 H        -0.806657         4.757331        -0.627488
 H        -0.784601         5.230953         0.937911
 H         1.873267         2.264787         0.961121
 H         1.543220         3.217413         2.326910
 H        -0.501551         2.179088         2.590129
