19
Iteration:  2822
 O         0.364758         0.306175         0.246096
 C        -0.677264         1.244811         0.697943
 C        -2.103949         0.818224         0.511822
 C        -1.643784         2.130206        -0.211008
 C        -1.277844         3.298756         0.756210
 C        -0.384158         4.417931         0.206803
 O         0.951855         3.870564         0.319594
 C         0.982998         2.929528         1.378253
 C        -0.485689         2.383778         1.667724
 H         0.495450        -0.258662         0.959833
 H        -2.289282         0.190015        -0.361526
 H        -2.839018         0.812619         1.369261
 H        -1.766079         2.205895        -1.314595
 H        -2.136674         3.780177         1.334330
 H        -0.679786         4.638041        -0.914572
 H        -0.462538         5.297398         0.853391
 H         1.654059         2.135576         1.299305
 H         1.219351         3.357693         2.374417
 H        -0.570617         2.111132         2.741863
