19
Iteration:  3945charge 0 multiplicity 1
 O         0.108423         0.069719         0.264136
 C        -0.666563         1.092195         0.700115
 C        -2.219528         0.947539         0.373155
 C        -1.424567         2.000817        -0.339373
 C        -1.246683         3.166473         0.608446
 C        -0.376991         4.378876         0.188831
 O         0.941033         4.362731         0.753517
 C         1.005877         3.027735         1.411994
 C        -0.331942         2.336339         1.595383
 H         0.273134        -0.709728         0.950920
 H        -2.563221         0.074168        -0.286150
 H        -2.874331         1.248180         1.315191
 H        -1.437752         1.988636        -1.424649
 H        -2.128775         3.477136         1.057154
 H        -0.196226         4.406846        -0.932388
 H        -0.788834         5.421801         0.244873
 H         1.598018         2.277281         0.859265
 H         1.624466         2.946979         2.288059
 H        -0.564832         2.335807         2.686249
