19
Iteration:  4849
 O         0.269477         0.273129         0.199623
 C        -0.738474         1.105340         0.648446
 C        -2.134277         0.895017         0.506258
 C        -1.505990         1.998777        -0.259531
 C        -1.327865         3.222887         0.666797
 C        -0.380394         4.379883         0.093348
 O         0.981513         4.150967         0.608082
 C         1.066127         2.989381         1.483021
 C        -0.432704         2.318926         1.597607
 H         0.393668        -0.348656         0.974083
 H        -2.371451         0.085888        -0.192349
 H        -3.069175         1.157021         1.208874
 H        -1.769120         2.052203        -1.299677
 H        -2.240496         3.574227         1.196367
 H        -0.436354         4.478015        -0.954240
 H        -0.777600         5.415006         0.419564
 H         1.818382         2.202377         1.241901
 H         1.135638         3.355109         2.475016
 H        -0.638906         2.102337         2.669401
