19
Iteration:  3880charge 0 multiplicity 1
 O         0.364408         0.259507         0.475220
 C        -0.768589         1.113994         0.554694
 C        -2.255236         0.910896         0.501515
 C        -1.634288         2.030589        -0.286206
 C        -1.284545         3.278772         0.522184
 C        -0.196180         4.342742         0.082976
 O         0.849321         4.273435         1.031644
 C         0.984229         2.844663         1.212324
 C        -0.340691         2.309496         1.446437
 H         0.103154        -0.564112        -0.024985
 H        -2.661715         0.062181        -0.127383
 H        -2.777478         1.258694         1.499195
 H        -1.654834         2.035238        -1.365447
 H        -2.237604         3.695661         0.978701
 H         0.179601         4.099848        -0.985496
 H        -0.624872         5.403703         0.135229
 H         1.566687         2.438923         0.362645
 H         1.744625         2.654113         1.967766
 H        -0.504373         2.203616         2.566046
