19
Iteration:  3402
 O         0.288509         0.155061         0.237204
 C        -0.611169         1.237615         0.608359
 C        -2.096427         0.942371         0.598774
 C        -1.557265         2.058964        -0.266266
 C        -1.325827         3.290294         0.600138
 C        -0.356830         4.370346         0.222113
 O         0.962132         3.935062         0.471777
 C         0.919396         2.998592         1.610913
 C        -0.458170         2.359819         1.546119
 H         0.793538         0.622044        -0.386297
 H        -2.363080         0.048070         0.059868
 H        -2.608497         0.949445         1.557370
 H        -1.791329         2.091790        -1.324585
 H        -2.326289         3.762757         1.011370
 H        -0.422768         4.428572        -0.873086
 H        -0.653300         5.303676         0.703092
 H         1.711842         2.267065         1.338812
 H         0.985403         3.585361         2.473309
 H        -0.885555         2.171721         2.551168
