19
Iteration:  3590charge 0 multiplicity 1
 O         0.202852         0.155447         0.419237
 C        -0.752476         1.113823         0.686483
 C        -2.219697         0.892854         0.423550
 C        -1.631711         2.064571        -0.218931
 C        -1.279199         3.275476         0.650343
 C        -0.291915         4.239424         0.006006
 O         0.805147         4.294960         0.921621
 C         1.094719         2.945975         1.178655
 C        -0.262518         2.302402         1.498773
 H         1.038406         0.555546         0.757364
 H        -2.363147         0.087407        -0.267360
 H        -2.990732         0.963863         1.192304
 H        -1.391618         2.245964        -1.267986
 H        -2.087655         3.857230         1.194193
 H        -0.001661         3.908404        -0.989722
 H        -0.533481         5.274723        -0.011478
 H         1.454485         2.423518         0.213662
 H         1.914616         2.932404         1.987629
 H        -0.457602         2.308693         2.557304
