19
Iteration:  1310
 O         0.464200         0.448206         0.107917
 C        -0.634443         1.205938         0.691490
 C        -2.225812         1.012751         0.539360
 C        -1.427523         2.138208        -0.140476
 C        -1.339174         3.276060         0.838670
 C        -0.371915         4.347996         0.185250
 O         0.837832         3.667746         0.195818
 C         0.889296         2.939790         1.487324
 C        -0.447374         2.324786         1.754054
 H         0.492831        -0.403838         0.591858
 H        -2.672176         0.036498         0.113196
 H        -2.750079         1.345440         1.492526
 H        -1.469101         2.257584        -1.199841
 H        -2.232674         3.804824         1.189430
 H        -0.845910         4.422167        -0.943064
 H        -0.327301         5.347359         0.592869
 H         1.714445         2.255717         1.285794
 H         1.219228         3.716396         2.274483
 H        -0.663145         2.186997         2.956657
