19
Iteration:  4810
 O         0.288903         0.164923         0.259177
 C        -0.647538         1.181518         0.584908
 C        -2.103870         0.892472         0.549244
 C        -1.568735         2.164085        -0.266448
 C        -1.347770         3.274895         0.711744
 C        -0.405104         4.271546         0.021404
 O         0.905905         4.161541         0.664140
 C         1.039019         2.968540         1.531106
 C        -0.345141         2.311913         1.596001
 H        -0.063577        -0.684244         0.129283
 H        -2.412439         0.231200        -0.296669
 H        -2.905558         0.963325         1.143156
 H        -1.822677         2.216381        -1.366241
 H        -2.262077         3.677764         1.222536
 H        -0.256874         3.923064        -1.079813
 H        -0.637022         5.301485         0.060658
 H         1.885735         2.417212         1.019139
 H         1.258874         3.535563         2.539698
 H        -0.735012         2.197420         2.627180
