19
Iteration:  1579
 O         0.301109         0.391946         0.123139
 C        -0.647135         1.258585         0.618672
 C        -2.099299         0.892139         0.674346
 C        -1.641053         2.057966        -0.215054
 C        -1.328766         3.271428         0.683515
 C        -0.308177         4.380474         0.221170
 O         0.926458         3.784184         0.343201
 C         0.939565         3.011811         1.507690
 C        -0.383891         2.341589         1.621395
 H         0.009001        -0.519343         0.396169
 H        -2.382351         0.076077         0.082114
 H        -2.613920         0.917645         1.599626
 H        -1.666541         1.847292        -1.319967
 H        -2.101221         3.876057         1.250932
 H        -0.442104         4.789353        -0.731139
 H        -0.378404         5.227852         0.939599
 H         1.763454         2.236134         1.483489
 H         1.102079         3.771510         2.300065
 H        -0.692741         2.167136         2.678724
