19
Iteration:  4091
 O         0.242057         0.113015         0.240209
 C        -0.651055         1.121404         0.524766
 C        -2.170740         0.939596         0.674485
 C        -1.674828         1.980287        -0.316190
 C        -1.224805         3.214260         0.461475
 C        -0.210503         4.399073        -0.070372
 O         0.827121         4.274949         1.004801
 C         1.031986         2.977033         1.505302
 C        -0.340546         2.334306         1.440943
 H        -0.293311        -0.576894         0.457839
 H        -2.553189         0.056747         0.262402
 H        -2.568326         1.263590         1.586935
 H        -1.928799         2.220975        -1.336506
 H        -2.066776         3.591755         0.977454
 H         0.191013         4.253395        -1.112972
 H        -0.823730         5.338693         0.245173
 H         1.991940         2.579465         0.891575
 H         1.323803         3.051022         2.513214
 H        -0.881219         2.204034         2.455492
