19
Iteration:  4045charge 0 multiplicity 1
 O         0.244652         0.201115         0.291514
 C        -0.711606         1.148298         0.658785
 C        -2.171626         0.929834         0.412013
 C        -1.552358         2.082505        -0.317945
 C        -1.246220         3.270644         0.669580
 C        -0.265854         4.172626        -0.010330
 O         0.786976         4.305168         0.936021
 C         1.052706         2.945307         1.322078
 C        -0.353447         2.392558         1.659968
 H        -0.194644        -0.653878         0.162896
 H        -2.352254        -0.011865        -0.132429
 H        -2.910584         1.156748         1.227502
 H        -1.479194         1.989663        -1.413327
 H        -2.069877         3.661302         1.163009
 H         0.050923         3.521842        -0.899280
 H        -0.576205         5.211930        -0.220712
 H         1.369374         2.212986         0.461043
 H         1.831773         3.047988         2.051707
 H        -0.587568         2.256153         2.747268
