19
Iteration:  3645
 O         0.200921         0.008623         0.322833
 C        -0.728082         1.060526         0.600447
 C        -2.202046         0.993761         0.687708
 C        -1.489625         1.979717        -0.347487
 C        -1.189486         3.186360         0.554370
 C        -0.341749         4.382319         0.056742
 O         0.815990         4.379006         0.880554
 C         1.036219         2.941730         1.362979
 C        -0.293877         2.331496         1.476062
 H         0.497463         0.149615        -0.539931
 H        -2.578267         0.188340         0.079620
 H        -2.847533         1.471764         1.411688
 H        -1.978001         2.163428        -1.306745
 H        -2.085059         3.623769         1.020099
 H        -0.096929         4.264212        -0.999083
 H        -0.692090         5.372962         0.150166
 H         1.808369         2.380598         0.933206
 H         1.532663         3.115928         2.361172
 H        -0.719035         2.330501         2.460462
