19
Iteration:  2219charge 0 multiplicity 1
 O         0.342747         0.297359         0.218999
 C        -0.637247         1.175611         0.548155
 C        -2.087958         0.965153         0.680883
 C        -1.612777         2.069277        -0.278945
 C        -1.351350         3.283326         0.710414
 C        -0.476446         4.433505         0.264052
 O         1.008616         3.857036         0.313309
 C         0.984638         2.985531         1.478387
 C        -0.418856         2.356165         1.638798
 H         0.046897        -0.630716         0.578109
 H        -2.429079         0.130755         0.035381
 H        -2.755170         1.167310         1.498568
 H        -1.914498         2.193283        -1.383530
 H        -2.259059         3.546892         1.063027
 H        -0.377238         4.776461        -0.739892
 H        -0.645193         5.230916         0.944185
 H         1.706518         2.168127         1.413711
 H         1.278647         3.585255         2.376386
 H        -0.455740         1.916111         2.680531
