19
Iteration:  1706charge 0 multiplicity 1
 O         0.348727         0.318705         0.238084
 C        -0.664818         1.246131         0.692665
 C        -2.142913         0.987652         0.493442
 C        -1.504699         2.123164        -0.247167
 C        -1.380277         3.236091         0.790191
 C        -0.385568         4.397994         0.321109
 O         0.931849         3.801856         0.189398
 C         0.966490         2.941781         1.425784
 C        -0.424357         2.385204         1.717922
 H         0.031907        -0.689697         0.301160
 H        -2.287834        -0.025486         0.174528
 H        -2.909393         1.211786         1.331966
 H        -1.463983         1.931263        -1.347148
 H        -2.261184         3.698176         1.184480
 H        -0.678928         4.904373        -0.632637
 H        -0.363505         5.114942         1.112876
 H         1.719659         2.266093         1.161927
 H         1.388470         3.502191         2.272010
 H        -0.616374         2.118549         2.757621
