19
Iteration:   317charge 0 multiplicity 1
 O         0.260421         0.270477         0.287030
 C        -0.622515         1.250064         0.625614
 C        -2.044596         1.011249         0.574347
 C        -1.508309         2.154754        -0.301581
 C        -1.307736         3.163285         0.777300
 C        -0.524651         4.420567         0.330685
 O         0.843884         3.841836         0.234135
 C         1.000586         2.952946         1.326557
 C        -0.333546         2.349917         1.687282
 H         0.106017        -0.483024         0.952381
 H        -2.410292         0.158086         0.053117
 H        -2.590027         1.249861         1.462564
 H        -1.230282         2.193497        -1.364188
 H        -2.281864         3.499455         1.295144
 H        -0.661480         4.880516        -0.600998
 H        -0.470510         5.176490         1.135318
 H         1.653715         2.144867         0.989895
 H         1.527330         3.395693         2.201121
 H        -0.613885         2.129216         2.775680
