19
Iteration:  1556
 O         0.476874         0.347088         0.221022
 C        -0.620814         1.189934         0.579098
 C        -2.140017         0.973580         0.570774
 C        -1.597047         2.237401        -0.190401
 C        -1.374097         3.283830         0.827996
 C        -0.427718         4.354096         0.198931
 O         0.916723         3.712565         0.218545
 C         0.965747         2.961902         1.533769
 C        -0.421047         2.294482         1.626879
 H         0.104361        -0.561350         0.550513
 H        -2.665580         0.299244        -0.031293
 H        -2.661193         1.189041         1.408345
 H        -2.042130         2.523016        -1.180975
 H        -2.214604         3.808883         1.366954
 H        -0.638393         4.638449        -0.754971
 H        -0.355471         5.302486         0.781695
 H         1.699278         2.136589         1.606192
 H         1.115600         3.793240         2.223039
 H        -0.637488         2.141001         2.714329
