19
Iteration:  1495
 O         0.365525         0.288115         0.216311
 C        -0.708928         1.147679         0.769456
 C        -2.141682         0.945410         0.530036
 C        -1.459094         2.128275        -0.199974
 C        -1.367587         3.317888         0.762650
 C        -0.357232         4.449100         0.369816
 O         0.832604         3.784945         0.252673
 C         0.999797         2.936039         1.314469
 C        -0.401111         2.415666         1.611032
 H         0.425298        -0.571586         0.619477
 H        -2.349784         0.094443        -0.144960
 H        -3.104932         1.077981         1.259579
 H        -1.361818         2.181564        -1.306243
 H        -2.247496         3.780150         1.209730
 H        -0.678554         4.863320        -0.686852
 H        -0.514191         5.202750         1.193917
 H         1.753730         2.124389         1.103405
 H         1.500258         3.550110         2.222227
 H        -0.750242         2.220437         2.622174
