19
Iteration:  1626
 O         0.229769         0.285149         0.104532
 C        -0.680967         1.165827         0.620935
 C        -2.144883         0.925230         0.619564
 C        -1.585040         2.149331        -0.146926
 C        -1.251231         3.249176         0.751227
 C        -0.372981         4.383387         0.075518
 O         0.951849         3.945549         0.417441
 C         0.951065         2.999372         1.535365
 C        -0.314858         2.242603         1.632624
 H         0.782235        -0.313534         0.770886
 H        -2.514872         0.002643         0.017339
 H        -2.916352         1.208108         1.498175
 H        -1.757416         2.261035        -1.192547
 H        -2.139088         3.805444         1.257980
 H        -0.586644         4.331258        -1.061624
 H        -0.608176         5.369263         0.413675
 H         1.923169         2.510760         1.284054
 H         0.994054         3.558173         2.474477
 H        -0.682763         1.970857         2.613268
