19
Iteration:  1587charge 0 multiplicity 1
 O         0.257901         0.399572         0.082043
 C        -0.677747         1.237754         0.675744
 C        -2.089385         0.843735         0.660300
 C        -1.660969         2.016673        -0.198641
 C        -1.307164         3.264446         0.623532
 C        -0.354375         4.371073         0.206807
 O         0.972917         3.825061         0.327221
 C         1.024879         3.025326         1.566383
 C        -0.390512         2.369056         1.648297
 H        -0.026674        -0.452852         0.396554
 H        -2.381081        -0.007567         0.079403
 H        -2.761726         0.985777         1.434392
 H        -1.839897         2.085173        -1.279752
 H        -2.189818         3.695188         1.069873
 H        -0.317950         4.876221        -0.749435
 H        -0.497878         5.176756         1.020715
 H         1.805235         2.273939         1.489954
 H         1.211277         3.725544         2.540839
 H        -0.616506         2.285552         2.740726
