19
Iteration:  4489
 O         0.237377         0.160599         0.273828
 C        -0.727049         1.127950         0.675093
 C        -2.232885         0.928515         0.439717
 C        -1.542055         2.045210        -0.255388
 C        -1.262537         3.216359         0.706789
 C        -0.256106         4.202097         0.006338
 O         0.862136         4.365550         0.851505
 C         1.052704         2.998560         1.382115
 C        -0.379643         2.333021         1.604123
 H         0.143475        -0.110295        -0.687982
 H        -2.232036        -0.044535        -0.130152
 H        -2.971397         0.887221         1.205668
 H        -1.656591         2.107286        -1.362959
 H        -2.178057         3.578742         1.144409
 H         0.124553         3.642419        -0.819490
 H        -0.610403         5.243472        -0.255225
 H         1.696441         2.516437         0.644280
 H         1.613855         3.072859         2.369776
 H        -0.743965         2.257071         2.699797
