19
Iteration:   667
 O         0.208602         0.222504         0.180281
 C        -0.656097         1.160358         0.749544
 C        -2.153517         0.883136         0.502142
 C        -1.456807         2.008612        -0.139725
 C        -1.303212         3.316535         0.794234
 C        -0.423344         4.475411         0.266822
 O         0.897721         4.003754         0.306773
 C         1.003367         2.942901         1.297855
 C        -0.356955         2.389387         1.684046
 H         0.246320        -0.588035         0.855493
 H        -2.477413         0.120336        -0.184625
 H        -2.707759         1.228172         1.416519
 H        -1.310701         1.916562        -1.256092
 H        -2.260257         3.628350         1.139046
 H        -0.676079         4.698024        -0.772631
 H        -0.575430         5.358528         0.843939
 H         1.772904         2.133582         0.932583
 H         1.526354         3.297450         2.150517
 H        -0.472170         2.249696         2.711490
