19
Iteration:  2523charge 0 multiplicity 1
 O         0.235407         0.269404         0.182819
 C        -0.651949         1.210584         0.713599
 C        -2.100270         0.933771         0.655486
 C        -1.389986         2.067068        -0.241055
 C        -1.317506         3.259103         0.729948
 C        -0.435220         4.381534         0.259306
 O         0.864370         3.733479         0.292429
 C         0.955658         3.026577         1.445130
 C        -0.395481         2.417120         1.643920
 H         0.825486         0.838869        -0.435641
 H        -2.381508         0.197696        -0.036484
 H        -2.693026         1.273225         1.466152
 H        -1.610155         2.176810        -1.301028
 H        -2.281120         3.465154         1.009099
 H        -0.624943         4.649620        -0.755511
 H        -0.447222         5.260574         0.964427
 H         1.902226         2.316844         1.526737
 H         1.134396         3.678872         2.292501
 H        -0.795187         2.307757         2.680700
