19
Iteration:  4487charge 0 multiplicity 1
 O         0.237587         0.165886         0.279242
 C        -0.711104         1.135586         0.667327
 C        -2.232921         0.902860         0.443966
 C        -1.550577         2.064695        -0.260120
 C        -1.265150         3.200655         0.690348
 C        -0.258146         4.197765        -0.015029
 O         0.865589         4.368813         0.867889
 C         1.054973         2.991244         1.383887
 C        -0.368672         2.335974         1.622699
 H         0.165451        -0.140274        -0.710213
 H        -2.280472        -0.053715        -0.154450
 H        -3.056847         0.905031         1.267628
 H        -1.684309         2.174129        -1.333115
 H        -2.214929         3.654994         1.169215
 H         0.123516         3.657189        -0.815217
 H        -0.566668         5.261247        -0.244542
 H         1.612087         2.469934         0.604455
 H         1.552368         3.079305         2.325059
 H        -0.712813         2.280397         2.659667
