19
Iteration:   118
 O         0.228231         0.263742         0.197142
 C        -0.711740         1.235243         0.762300
 C        -2.153728         0.859979         0.517019
 C        -1.506040         2.066172        -0.243939
 C        -1.294817         3.218789         0.782897
 C        -0.437169         4.403002         0.333631
 O         0.872196         3.835188         0.215339
 C         1.025675         3.134856         1.354454
 C        -0.261340         2.393538         1.683844
 H        -0.015114        -0.584345         0.544176
 H        -2.114926        -0.120472         0.119812
 H        -2.971868         0.892968         1.203500
 H        -1.278376         1.955291        -1.273080
 H        -2.209036         3.516123         1.408376
 H        -0.692352         4.863321        -0.582409
 H        -0.489591         5.253292         1.073209
 H         1.831945         2.430895         1.246984
 H         1.465818         3.842374         2.106311
 H        -0.455394         2.402815         2.752591
