19
Iteration:   269
 O         0.266370         0.249907         0.161763
 C        -0.670880         1.140481         0.593149
 C        -2.172907         0.779488         0.621621
 C        -1.691890         2.092079        -0.076203
 C        -1.287284         3.308739         0.763405
 C        -0.322568         4.369695         0.203072
 O         0.974988         4.005723         0.291309
 C         1.022366         3.098338         1.495096
 C        -0.352510         2.290888         1.540216
 H         0.261685        -0.439323         0.742278
 H        -2.401641         0.036949        -0.144467
 H        -2.825592         0.692496         1.520993
 H        -1.975359         2.191791        -1.132897
 H        -1.885458         3.977692         1.267130
 H        -0.460078         4.676828        -0.906582
 H        -0.523504         5.206687         0.836248
 H         1.941599         2.534626         1.377237
 H         1.001284         3.711563         2.364936
 H        -0.672178         2.138606         2.624281
