19
Iteration:  1851
 O         0.206454         0.268420         0.138183
 C        -0.721210         1.227968         0.634654
 C        -2.130362         0.851577         0.561425
 C        -1.645570         2.082097        -0.164555
 C        -1.292907         3.273989         0.747597
 C        -0.340395         4.303620         0.162497
 O         1.005507         3.957624         0.376730
 C         1.012407         3.078024         1.484772
 C        -0.336335         2.341426         1.668450
 H         0.236821        -0.498464         0.878622
 H        -2.292551         0.137273        -0.277530
 H        -2.812555         0.845959         1.373993
 H        -1.787693         2.209218        -1.242132
 H        -2.187962         3.661752         1.151967
 H        -0.546645         4.422679        -0.873629
 H        -0.473001         5.269637         0.703872
 H         1.837069         2.309251         1.339290
 H         1.335236         3.767774         2.333267
 H        -0.635140         2.131171         2.722182
