19
Iteration:  1368
 O         0.403831         0.320741         0.245816
 C        -0.666463         1.179826         0.615738
 C        -2.093398         0.878556         0.573541
 C        -1.700271         2.194055        -0.128427
 C        -1.382473         3.284310         0.802240
 C        -0.335126         4.409513         0.251727
 O         1.027063         3.783052         0.203545
 C         0.898494         3.011770         1.451341
 C        -0.429135         2.326993         1.526534
 H         0.314107        -0.402438         0.963909
 H        -2.382812         0.291288        -0.246070
 H        -2.764707         0.811970         1.435651
 H        -1.834176         2.189198        -1.242539
 H        -2.150027         3.746593         1.539332
 H        -0.786722         4.763453        -0.705667
 H        -0.326248         5.220854         1.001651
 H         1.717984         2.230115         1.392489
 H         1.097570         3.669142         2.367673
 H        -0.659904         2.171339         2.669582
