19
Iteration:  4149
 O         0.173541         0.218319         0.209036
 C        -0.761906         1.134300         0.711662
 C        -2.217097         0.928999         0.428057
 C        -1.570440         2.084678        -0.278934
 C        -1.196536         3.260979         0.630056
 C        -0.249946         4.147629        -0.033720
 O         0.786081         4.317661         0.967222
 C         1.084077         2.999904         1.354407
 C        -0.320516         2.300219         1.578402
 H         0.546211        -0.252117         1.081248
 H        -2.338163         0.063548        -0.250551
 H        -3.026637         0.800239         1.098002
 H        -1.532503         2.114317        -1.383591
 H        -2.051807         3.540797         1.301799
 H         0.064046         3.576763        -0.959743
 H        -0.504611         5.190380        -0.406126
 H         1.699909         2.463400         0.526400
 H         1.706679         3.116147         2.327581
 H        -0.529557         2.321632         2.676910
