19
Iteration:  3781
 O         0.110674         0.037761         0.267717
 C        -0.665175         1.118185         0.583272
 C        -2.173186         0.903093         0.521431
 C        -1.577427         2.088878        -0.334176
 C        -1.300954         3.223635         0.622603
 C        -0.278006         4.226462         0.072085
 O         0.902330         4.338741         0.871698
 C         1.032865         3.000471         1.436300
 C        -0.317580         2.384123         1.528102
 H         0.962064         0.360340        -0.002286
 H        -2.395368        -0.072989         0.013840
 H        -2.865781         1.088130         1.476803
 H        -1.724605         2.337329        -1.390086
 H        -2.156567         3.924866         1.086203
 H        -0.049124         3.944662        -0.926235
 H        -0.671555         5.251247        -0.072746
 H         1.824886         2.347009         0.950483
 H         1.484748         3.157171         2.438251
 H        -0.661226         2.078522         2.549578
