19
Iteration:  1875
 O         0.323799         0.307225         0.076856
 C        -0.664692         1.191431         0.706410
 C        -2.183269         1.031021         0.613156
 C        -1.482226         2.057671        -0.167382
 C        -1.317544         3.308608         0.767430
 C        -0.412007         4.357525         0.166974
 O         0.899856         3.815893         0.342833
 C         0.961858         2.989650         1.533608
 C        -0.374702         2.370197         1.586935
 H         0.282088        -0.625847         0.355109
 H        -2.528053         0.128616         0.173042
 H        -2.628455         1.361499         1.549061
 H        -1.389900         2.159146        -1.236643
 H        -2.320758         3.462117         1.238064
 H        -0.633974         4.306855        -0.910793
 H        -0.446035         5.381702         0.562889
 H         1.788788         2.076063         1.477053
 H         1.267380         3.723765         2.364867
 H        -0.686149         2.159679         2.710724
