19
Iteration:  1703
 O         0.352753         0.307896         0.213867
 C        -0.704755         1.227094         0.701182
 C        -2.145385         0.968672         0.496705
 C        -1.498797         2.069768        -0.237851
 C        -1.355893         3.266915         0.782963
 C        -0.360595         4.395730         0.315926
 O         0.931694         3.812493         0.192814
 C         0.963052         2.967402         1.428181
 C        -0.435559         2.394670         1.728856
 H         0.027282        -0.545685         0.263656
 H        -2.305268        -0.106406         0.170236
 H        -2.941911         1.254708         1.349737
 H        -1.433002         2.002724        -1.300725
 H        -2.335095         3.743693         1.225604
 H        -0.590004         4.991689        -0.655203
 H        -0.439495         5.109676         1.189000
 H         1.757241         2.231397         1.056044
 H         1.412277         3.571842         2.343338
 H        -0.633315         2.112145         2.742942
