19
Iteration:  1287charge 0 multiplicity 1
 O         0.339060         0.378106         0.198546
 C        -0.648502         1.235193         0.621342
 C        -2.121277         0.906680         0.588145
 C        -1.637158         2.132278        -0.152558
 C        -1.360080         3.275799         0.741392
 C        -0.405355         4.358686         0.251421
 O         0.941337         3.728929         0.237923
 C         1.019875         2.991762         1.522757
 C        -0.383386         2.362037         1.552144
 H         0.425689        -0.331851         0.927323
 H        -2.327269         0.063447        -0.148903
 H        -2.848635         0.940406         1.429325
 H        -1.812852         2.229755        -1.194826
 H        -2.129415         3.770885         1.277602
 H        -0.668081         4.768347        -0.803136
 H        -0.500148         5.163308         0.959744
 H         1.909881         2.372022         1.479111
 H         1.119902         3.756846         2.375786
 H        -0.610524         2.176049         2.697927
