19
Iteration:   953
 O         0.286417         0.400249         0.298519
 C        -0.668141         1.208181         0.775661
 C        -2.158927         0.930383         0.490010
 C        -1.463332         2.055251        -0.274831
 C        -1.342495         3.236662         0.729681
 C        -0.445949         4.467897         0.389812
 O         0.863973         3.851128         0.163795
 C         1.020185         2.891022         1.379526
 C        -0.332067         2.365734         1.666954
 H         0.127048        -0.617217         0.339412
 H        -2.246768        -0.082147         0.055388
 H        -2.893810         1.173471         1.367222
 H        -1.328572         2.106146        -1.389691
 H        -2.304590         3.388005         1.185306
 H        -0.722967         5.061713        -0.459425
 H        -0.377457         5.036374         1.322856
 H         1.762067         2.034144         0.934420
 H         1.575336         3.515758         2.091131
 H        -0.697783         2.280431         2.759721
