19
Iteration:  1111charge 0 multiplicity 1
 O         0.331951         0.328412         0.157287
 C        -0.671991         1.144607         0.751814
 C        -2.098159         0.869835         0.454851
 C        -1.653959         2.196365        -0.124229
 C        -1.290153         3.321156         0.873479
 C        -0.363961         4.382434         0.229013
 O         0.889948         3.739591         0.174564
 C         0.988479         3.035368         1.484968
 C        -0.395028         2.366959         1.671992
 H         0.362568        -0.480940         0.568802
 H        -2.262847         0.174465        -0.350517
 H        -2.751655         0.793374         1.288825
 H        -1.644885         2.270458        -1.259827
 H        -2.158396         3.757795         1.294176
 H        -0.777239         4.605887        -0.796741
 H        -0.375509         5.244893         0.893819
 H         1.870450         2.462539         1.465693
 H         1.173376         3.815073         2.220015
 H        -0.557806         2.238344         2.747612
