19
Iteration:  4465
 O         0.303935         0.242620         0.349265
 C        -0.724473         1.197423         0.556323
 C        -2.142591         0.881647         0.546740
 C        -1.695234         2.049130        -0.256742
 C        -1.237166         3.327354         0.614659
 C        -0.185257         4.189617        -0.030737
 O         0.779127         4.258117         0.977295
 C         1.059086         2.908796         1.362136
 C        -0.408439         2.335344         1.479676
 H         0.214745        -0.161473        -0.470804
 H        -2.449798         0.008712        -0.062076
 H        -2.731224         0.912055         1.550051
 H        -1.822861         1.918486        -1.320459
 H        -2.101940         3.875779         1.088670
 H         0.255984         3.795276        -0.890370
 H        -0.642110         5.221296        -0.135638
 H         1.612041         2.528274         0.513550
 H         1.662251         2.897518         2.253307
 H        -0.710926         2.110097         2.504469
