19
Iteration:  1531charge 0 multiplicity 1
 O         0.331557         0.434977         0.290907
 C        -0.711669         1.262770         0.676179
 C        -2.135359         0.847107         0.435909
 C        -1.571255         2.210911        -0.186359
 C        -1.369023         3.278571         0.909413
 C        -0.392502         4.318835         0.288246
 O         0.885227         3.691713         0.206711
 C         1.065057         3.002863         1.409688
 C        -0.376404         2.327367         1.610653
 H         0.007200        -0.410121         0.492852
 H        -2.025791        -0.007560        -0.284121
 H        -2.988352         0.893369         1.078311
 H        -1.463131         2.462795        -1.218167
 H        -2.195649         3.746989         1.393904
 H        -0.694396         4.533319        -0.787527
 H        -0.267951         5.318015         0.791824
 H         1.830553         2.246623         1.358016
 H         1.287189         3.798006         2.260382
 H        -0.454342         2.182751         2.716387
