19
Iteration:  4386
 O         0.146660         0.012586         0.190103
 C        -0.699144         1.169797         0.614396
 C        -2.215979         0.917318         0.424758
 C        -1.524177         2.124536        -0.325048
 C        -1.263767         3.196722         0.674030
 C        -0.274454         4.258272         0.095866
 O         0.846072         4.358349         0.859967
 C         1.054857         3.057053         1.419089
 C        -0.322007         2.336831         1.626766
 H         0.431010        -0.391331         0.979167
 H        -2.244219        -0.052653        -0.156916
 H        -3.055645         0.873615         1.346297
 H        -1.382067         2.327629        -1.410286
 H        -2.336875         3.483300         1.135450
 H         0.147282         3.843701        -0.863096
 H        -0.678644         5.241853        -0.302801
 H         1.645674         2.471574         0.676066
 H         1.709036         3.107179         2.290228
 H        -0.580893         2.221291         2.653451
