19
Iteration:  4639charge 0 multiplicity 1
 O         0.229786         0.130044         0.315419
 C        -0.727301         1.125565         0.581641
 C        -2.188054         0.868645         0.614701
 C        -1.547244         1.946265        -0.327732
 C        -1.300705         3.246364         0.520561
 C        -0.328491         4.360550         0.143624
 O         0.871476         4.347052         0.968473
 C         1.083375         2.967357         1.275900
 C        -0.309927         2.341723         1.441469
 H        -0.006167        -0.683687         0.900768
 H        -2.623698        -0.008774        -0.006147
 H        -2.950818         1.374857         1.234530
 H        -1.691167         1.884803        -1.434010
 H        -2.152101         3.716718         1.112382
 H         0.065305         4.277080        -0.903059
 H        -0.622809         5.405490         0.096068
 H         1.671198         2.452728         0.416678
 H         1.723983         3.054453         2.094084
 H        -0.603867         2.398969         2.457541
