19
Iteration:  2047
 O         0.298960         0.248741         0.208100
 C        -0.694834         1.158423         0.698775
 C        -2.244193         0.990934         0.557824
 C        -1.434065         2.087629        -0.238924
 C        -1.362456         3.250593         0.752288
 C        -0.444165         4.401487         0.146822
 O         0.891409         3.943902         0.409586
 C         1.033942         3.016597         1.422072
 C        -0.299651         2.322773         1.649647
 H         0.117230        -0.723388         0.540304
 H        -2.539188         0.043470         0.143867
 H        -2.902853         1.270798         1.436016
 H        -1.290284         2.040764        -1.339730
 H        -2.143428         3.769755         1.318687
 H        -0.472875         4.509475        -0.943079
 H        -0.643719         5.410942         0.539565
 H         1.628581         2.236066         1.022044
 H         1.528510         3.379448         2.390234
 H        -0.372306         2.018150         2.637742
