19
Iteration:   109charge 0 multiplicity 1
 O         0.139646         0.224832         0.241019
 C        -0.648414         1.213138         0.696516
 C        -2.125902         0.803147         0.498210
 C        -1.494165         2.000417        -0.188099
 C        -1.333969         3.212803         0.753039
 C        -0.411822         4.470769         0.340181
 O         0.879765         3.910600         0.205628
 C         1.109031         3.161521         1.373659
 C        -0.299786         2.429805         1.680441
 H        -0.048392        -0.607738         0.665170
 H        -2.138867         0.023420        -0.210676
 H        -2.808071         0.834100         1.308031
 H        -1.648581         1.993473        -1.254863
 H        -2.336549         3.489638         1.290270
 H        -0.627497         4.856630        -0.565268
 H        -0.343474         5.159673         1.196052
 H         1.715729         2.380964         1.066397
 H         1.425230         3.662901         2.283305
 H        -0.430747         2.317857         2.710770
