19
Iteration:  2647
 O         0.324857         0.276689         0.256418
 C        -0.642176         1.173606         0.645946
 C        -2.102383         0.891934         0.598677
 C        -1.589303         2.074033        -0.137548
 C        -1.381803         3.276581         0.713314
 C        -0.364829         4.382978         0.258736
 O         0.925550         3.716249         0.243519
 C         1.028708         3.100767         1.545661
 C        -0.428341         2.454004         1.589307
 H         0.711549         0.358402        -0.712375
 H        -2.333561         0.118329        -0.165919
 H        -2.932571         0.894914         1.328520
 H        -1.835062         2.166709        -1.193109
 H        -2.234404         3.651864         1.155146
 H        -0.561429         4.869610        -0.781081
 H        -0.527436         5.189744         1.027164
 H         1.821096         2.242281         1.323657
 H         1.140207         3.856831         2.331192
 H        -0.878181         2.281704         2.613381
