19
Iteration:  1006
 O         0.239177         0.227055         0.195781
 C        -0.698475         1.228596         0.600712
 C        -2.158735         0.795609         0.511340
 C        -1.696484         2.137531        -0.165945
 C        -1.341018         3.283124         0.822158
 C        -0.330400         4.344388         0.268438
 O         0.959808         3.898404         0.296617
 C         1.038794         3.153281         1.483352
 C        -0.248271         2.302709         1.550429
 H         0.352109        -0.303572         1.046264
 H        -2.433235         0.018072        -0.204884
 H        -2.950940         0.776124         1.346562
 H        -1.735874         2.124779        -1.289970
 H        -2.191760         3.627535         1.506354
 H        -0.523871         4.558840        -0.794806
 H        -0.454282         5.290732         0.828033
 H         2.084926         2.652129         1.417357
 H         0.985943         3.975710         2.195941
 H        -0.489187         2.101327         2.706676
