19
Iteration:   594
 O         0.264666         0.165887         0.276832
 C        -0.648864         1.134769         0.733906
 C        -2.140343         0.929417         0.512909
 C        -1.503697         2.094072        -0.182042
 C        -1.315891         3.275252         0.760279
 C        -0.430023         4.444583         0.340493
 O         0.899172         3.917115         0.181547
 C         1.018210         3.081462         1.344330
 C        -0.340547         2.348695         1.671730
 H        -0.294870        -0.615504         0.216120
 H        -2.388165         0.340373        -0.359499
 H        -2.849857         0.947191         1.402355
 H        -1.435970         2.094151        -1.259103
 H        -2.290283         3.624962         1.265534
 H        -0.590108         4.871557        -0.662298
 H        -0.491189         5.220019         1.191271
 H         1.764829         2.267711         1.069828
 H         1.393550         3.741322         2.265607
 H        -0.491267         2.252983         2.843574
