19
Iteration:   552charge 0 multiplicity 1
 O         0.371706         0.365189         0.237788
 C        -0.658029         1.193684         0.631530
 C        -2.117355         0.967147         0.561506
 C        -1.589658         2.213624        -0.155316
 C        -1.353268         3.246347         0.831696
 C        -0.441079         4.340907         0.224291
 O         0.905669         3.756596         0.208508
 C         1.044411         3.002078         1.391317
 C        -0.413721         2.333758         1.687155
 H         0.419203        -0.507858         0.830608
 H        -2.403298         0.318433        -0.237242
 H        -2.873526         1.062706         1.375392
 H        -1.622946         2.239057        -1.218597
 H        -2.337907         3.648442         1.283131
 H        -0.847623         4.579767        -0.803592
 H        -0.384167         5.206640         0.844879
 H         1.725769         2.194233         1.206586
 H         1.426946         3.577130         2.229955
 H        -0.581526         1.938177         2.766384
