19
Iteration:   684
 O         0.215267         0.238168         0.142024
 C        -0.704915         1.186039         0.745957
 C        -2.158756         0.802940         0.573077
 C        -1.497699         2.132309        -0.132432
 C        -1.367277         3.291863         0.709553
 C        -0.428197         4.414770         0.247021
 O         0.926417         3.910890         0.305787
 C         1.091201         2.972681         1.357834
 C        -0.335790         2.445520         1.709435
 H         0.377808        -0.595430         0.679036
 H        -1.989361        -0.023095        -0.160766
 H        -3.065075         0.734827         1.100366
 H        -1.460527         2.273905        -1.217867
 H        -2.286844         3.726712         1.229340
 H        -0.594082         4.846806        -0.789583
 H        -0.463091         5.269852         1.031818
 H         1.597616         2.224703         0.866649
 H         1.670559         3.508038         2.211868
 H        -0.628727         2.470244         2.846620
