19
Iteration:  1946
 O         0.363060         0.381758         0.267463
 C        -0.709104         1.225822         0.661873
 C        -2.159056         0.958135         0.475714
 C        -1.536092         2.156486        -0.200407
 C        -1.319475         3.262090         0.866090
 C        -0.437986         4.384103         0.199088
 O         0.916588         3.772284         0.202852
 C         1.007058         2.920962         1.467024
 C        -0.406351         2.344280         1.696433
 H         0.467037        -0.333816         0.861976
 H        -2.260401         0.081464        -0.263496
 H        -2.918168         0.955044         1.261599
 H        -1.435215         2.222659        -1.286815
 H        -2.171015         3.793098         1.295204
 H        -0.746387         4.451248        -0.844355
 H        -0.480379         5.314264         0.720662
 H         1.584393         2.150330         1.115686
 H         1.455194         3.313384         2.407918
 H        -0.625240         2.341216         2.703705
