19
Iteration:  1930
 O         0.345950         0.356059         0.274604
 C        -0.706641         1.259441         0.696641
 C        -2.086089         0.814989         0.442807
 C        -1.638897         2.172258        -0.096797
 C        -1.365958         3.389798         0.781759
 C        -0.316958         4.326401         0.228443
 O         0.938456         3.766214         0.257178
 C         0.972674         2.945874         1.357257
 C        -0.441974         2.353444         1.642599
 H         0.575600        -0.382538         0.949905
 H        -2.216155         0.195500        -0.397011
 H        -2.804749         0.857611         1.276597
 H        -1.821539         2.378393        -1.154899
 H        -2.276894         3.701769         1.350781
 H        -0.541774         4.763589        -0.771968
 H        -0.335468         5.267683         0.895265
 H         1.873864         2.093980         1.296786
 H         1.174958         3.773043         2.104851
 H        -0.561434         2.021063         2.793875
