19
Iteration:  4520
 O         0.193048         0.086168         0.304949
 C        -0.672852         1.166411         0.573103
 C        -2.205677         0.993341         0.515258
 C        -1.501192         1.999138        -0.307823
 C        -1.237561         3.176268         0.605360
 C        -0.343707         4.358180         0.030941
 O         0.849479         4.268729         0.812468
 C         1.045681         2.966725         1.463675
 C        -0.326859         2.336697         1.621943
 H         0.367897        -0.016357        -0.637407
 H        -2.349843        -0.071820         0.118823
 H        -2.842109         1.209581         1.416204
 H        -1.728982         2.158930        -1.367374
 H        -2.281888         3.347596         1.040503
 H        -0.123997         4.260133        -1.028008
 H        -0.800179         5.401173         0.100512
 H         1.831444         2.469387         0.916825
 H         1.491349         3.109951         2.420079
 H        -0.729293         2.272043         2.624877
