19
Iteration:   137charge 0 multiplicity 1
 O         0.343363         0.358675         0.222596
 C        -0.627409         1.162160         0.696823
 C        -2.132480         1.009282         0.538470
 C        -1.451570         2.125327        -0.101068
 C        -1.369017         3.237855         0.834005
 C        -0.457253         4.354447         0.247115
 O         0.848438         3.802334         0.125227
 C         1.003738         3.013108         1.420795
 C        -0.383300         2.294137         1.648148
 H         0.374548        -0.575596         0.610093
 H        -2.667913         0.299123        -0.161571
 H        -2.742927         1.302457         1.446830
 H        -1.486701         2.204939        -1.203485
 H        -2.258772         3.610571         1.267240
 H        -0.887463         4.657327        -0.822518
 H        -0.391955         5.278279         0.877941
 H         1.918214         2.312625         1.335777
 H         1.209066         3.636778         2.362384
 H        -0.514378         2.113859         2.792013
