19
Iteration:   978
 O         0.329603         0.205718         0.216335
 C        -0.578619         1.204385         0.659116
 C        -2.120644         1.011840         0.517888
 C        -1.464019         2.214126        -0.178525
 C        -1.343696         3.266439         0.846926
 C        -0.457856         4.365944         0.251739
 O         0.834629         3.861185         0.223406
 C         0.958513         2.943906         1.432775
 C        -0.351426         2.329066         1.660275
 H         0.252004        -0.481526         0.877746
 H        -2.459914         0.340347        -0.249098
 H        -2.814986         1.244725         1.358386
 H        -1.624849         2.225636        -1.230640
 H        -2.239997         3.506558         1.382027
 H        -0.768655         4.463832        -0.796718
 H        -0.556104         5.328299         0.825152
 H         1.752774         2.211050         1.128032
 H         1.335385         3.635858         2.200923
 H        -0.595860         2.198362         2.671097
