19
Iteration:  3852charge 0 multiplicity 1
 O         0.242196         0.180267         0.347748
 C        -0.763388         1.175882         0.614819
 C        -2.200483         0.882180         0.606462
 C        -1.538830         1.982735        -0.316147
 C        -1.222942         3.273096         0.453732
 C        -0.202091         4.281501         0.070745
 O         0.848993         4.306970         1.081728
 C         0.975229         2.894025         1.259357
 C        -0.377937         2.377814         1.464154
 H        -0.063354        -0.221268        -0.440302
 H        -2.417080        -0.113378         0.278315
 H        -2.671173         1.212629         1.431142
 H        -1.654060         1.979617        -1.424696
 H        -2.151400         3.721269         0.778064
 H         0.173030         4.228679        -0.926260
 H        -0.736444         5.232035         0.128643
 H         1.545527         2.508957         0.418377
 H         1.701953         2.658138         2.046582
 H        -0.613124         2.376728         2.524430
