19
Iteration:   276
 O         0.299776         0.242222         0.148109
 C        -0.697897         1.114196         0.640358
 C        -2.186078         0.801747         0.598490
 C        -1.696017         2.063718        -0.100582
 C        -1.260122         3.275475         0.788026
 C        -0.316418         4.439496         0.173355
 O         1.004582         4.003029         0.293678
 C         0.987781         3.106193         1.452676
 C        -0.402377         2.309207         1.572728
 H         0.256460        -0.614773         0.672485
 H        -2.543890         0.018413        -0.066709
 H        -2.753281         0.869872         1.598629
 H        -1.651550         2.082301        -1.160515
 H        -2.084763         3.785894         1.429407
 H        -0.667429         4.795752        -0.815699
 H        -0.530955         5.268317         0.934019
 H         1.942974         2.460647         1.363208
 H         1.289968         3.713658         2.377116
 H        -0.659323         2.151219         2.578707
