19
Iteration:  3617
 O         0.122140         0.079542         0.327446
 C        -0.694182         1.160683         0.613644
 C        -2.120566         0.874958         0.629138
 C        -1.540606         1.976090        -0.311427
 C        -1.286185         3.254014         0.561833
 C        -0.295310         4.324287         0.086385
 O         0.870807         4.321928         0.927934
 C         1.007952         2.947816         1.281201
 C        -0.335945         2.387199         1.479513
 H         1.045329         0.364442         0.344526
 H        -2.308868        -0.067979         0.056050
 H        -2.853120         1.182188         1.432620
 H        -1.719370         2.071704        -1.391634
 H        -2.184639         3.703072         1.070693
 H         0.000320         4.104227        -0.996672
 H        -0.547648         5.430824         0.029879
 H         1.397841         2.300248         0.343303
 H         1.831462         2.788534         1.942914
 H        -0.769709         2.378628         2.515837
