19
Iteration:  4608charge 0 multiplicity 1
 O         0.199672         0.127994         0.323423
 C        -0.677864         1.156083         0.666531
 C        -2.145919         0.885280         0.451245
 C        -1.512748         2.107775        -0.240087
 C        -1.300572         3.296759         0.655162
 C        -0.293069         4.284117         0.025828
 O         0.780652         4.286885         0.907096
 C         1.011359         2.953466         1.210002
 C        -0.325647         2.248935         1.608805
 H         0.700647        -0.046782         1.078253
 H        -2.439180         0.084302        -0.303693
 H        -3.072986         1.228423         0.906181
 H        -1.382481         2.175825        -1.360573
 H        -2.149634         3.857444         1.246403
 H         0.029624         3.786372        -0.975044
 H        -0.760050         5.310274        -0.043772
 H         1.443974         2.325080         0.277344
 H         1.874306         2.911918         1.836197
 H        -0.395118         2.322372         2.637596
