19
Iteration:   686charge 0 multiplicity 1
 O         0.220023         0.249599         0.143969
 C        -0.724116         1.186407         0.749709
 C        -2.147520         0.808350         0.570159
 C        -1.522610         2.132271        -0.145355
 C        -1.369483         3.288229         0.722687
 C        -0.420448         4.411171         0.260668
 O         0.932912         3.906049         0.295981
 C         1.080764         2.979358         1.368595
 C        -0.330417         2.445557         1.700055
 H         0.400903        -0.645335         0.692999
 H        -1.939349         0.024537        -0.141485
 H        -3.020691         0.755099         1.139264
 H        -1.457550         2.251406        -1.286515
 H        -2.265378         3.641788         1.227361
 H        -0.621879         4.809357        -0.791873
 H        -0.453239         5.264741         1.000256
 H         1.664890         2.198625         0.925075
 H         1.690978         3.479442         2.205269
 H        -0.632951         2.490069         2.760380
