19
Iteration:  1704
 O         0.352162         0.310820         0.221069
 C        -0.693226         1.233618         0.698329
 C        -2.142877         0.975703         0.493212
 C        -1.500544         2.086726        -0.240943
 C        -1.363556         3.255844         0.785993
 C        -0.367753         4.396373         0.318434
 O         0.932592         3.809340         0.190688
 C         0.962499         2.958303         1.427332
 C        -0.432685         2.392522         1.727858
 H         0.029387        -0.594435         0.273509
 H        -2.297874        -0.089686         0.178594
 H        -2.948607         1.246848         1.360216
 H        -1.444106         1.971393        -1.313421
 H        -2.319240         3.735796         1.216517
 H        -0.620316         4.973849        -0.660299
 H        -0.417866         5.106584         1.163800
 H         1.748380         2.247180         1.083649
 H         1.411972         3.554534         2.331850
 H        -0.625404         2.112063         2.738117
