19
Iteration:   814
 O         0.335985         0.375456         0.167204
 C        -0.674730         1.224483         0.561712
 C        -2.049455         0.951624         0.720693
 C        -1.632567         2.194321        -0.192218
 C        -1.352337         3.218994         0.738430
 C        -0.428155         4.314583         0.141368
 O         0.902554         3.792907         0.372183
 C         0.997617         2.941611         1.498513
 C        -0.358657         2.310714         1.522686
 H         0.815992         0.011523         0.955860
 H        -2.606570         0.177011         0.146171
 H        -2.594530         1.358674         1.621457
 H        -1.934059         2.268072        -1.292550
 H        -2.164131         3.810024         1.329329
 H        -0.564874         4.471711        -0.948602
 H        -0.583444         5.238625         0.686750
 H         1.926250         2.280708         1.384814
 H         1.145294         3.490445         2.467901
 H        -0.664963         2.093339         2.605460
