19
Iteration:  3619
 O         0.132635         0.065938         0.326074
 C        -0.693655         1.155296         0.611587
 C        -2.129941         0.884522         0.625595
 C        -1.545261         1.978751        -0.296926
 C        -1.299919         3.256341         0.556344
 C        -0.299727         4.325323         0.088272
 O         0.873044         4.313397         0.920336
 C         0.995740         2.963702         1.297930
 C        -0.325090         2.384749         1.474783
 H         1.002790         0.346614         0.273775
 H        -2.337332        -0.041523         0.091838
 H        -2.762503         1.210742         1.434295
 H        -1.666860         2.007607        -1.390902
 H        -2.137279         3.714991         1.019131
 H         0.031321         4.154346        -0.984156
 H        -0.550315         5.485662         0.037038
 H         1.421473         2.368209         0.378093
 H         1.879693         2.739031         1.936993
 H        -0.798149         2.339906         2.487682
