19
Iteration:  2758
 O         0.313971         0.093226         0.319808
 C        -0.615161         1.165960         0.580620
 C        -2.179313         0.945426         0.607713
 C        -1.560162         2.071282        -0.251690
 C        -1.389206         3.286820         0.763328
 C        -0.427676         4.420189         0.249599
 O         0.963431         3.862972         0.288099
 C         0.972246         3.098024         1.488553
 C        -0.342379         2.398883         1.605308
 H         0.618336         0.352656        -0.576672
 H        -2.551935         0.205287        -0.122418
 H        -2.914037         1.142485         1.477688
 H        -1.804052         2.068974        -1.335516
 H        -2.310439         3.579656         1.119575
 H        -0.557934         4.825017        -0.815794
 H        -0.499798         5.226933         1.003141
 H         2.080018         2.534136         1.507684
 H         1.120562         3.804560         2.302348
 H        -0.505867         2.084434         2.686341
