19
Iteration:  1537charge 0 multiplicity 1
 O         0.382736         0.413000         0.291761
 C        -0.682566         1.273778         0.631071
 C        -2.132967         0.949959         0.426216
 C        -1.646592         2.197825        -0.161705
 C        -1.306931         3.294090         0.871528
 C        -0.397582         4.284485         0.273894
 O         0.856841         3.672028         0.220974
 C         1.037985         3.036471         1.440267
 C        -0.372915         2.316264         1.645430
 H         0.129701        -0.589788         0.521758
 H        -2.188201         0.090863        -0.234361
 H        -3.016634         0.823000         1.213154
 H        -1.534234         2.416442        -1.249654
 H        -2.259197         3.657283         1.371414
 H        -0.614570         4.493678        -0.797089
 H        -0.316477         5.248248         0.780666
 H         1.878960         2.336116         1.147912
 H         1.215495         3.614210         2.313449
 H        -0.497220         2.090838         2.697575
