19
Iteration:  1469
 O         0.283445         0.227209         0.336385
 C        -0.652875         1.254615         0.503614
 C        -2.161516         1.037026         0.599158
 C        -1.573701         2.122661        -0.292339
 C        -1.278259         3.154023         0.744121
 C        -0.413961         4.386122         0.349459
 O         0.907064         3.931398         0.279161
 C         1.019088         2.996971         1.389047
 C        -0.325594         2.262399         1.603088
 H         0.340574        -0.137357         1.164996
 H        -2.507731         0.143414         0.083807
 H        -2.711245         1.253123         1.434587
 H        -1.667841         2.279238        -1.357080
 H        -2.240460         3.647945         1.145082
 H        -0.778513         4.750310        -0.514760
 H        -0.645765         5.099074         1.141822
 H         1.754123         2.235202         1.050796
 H         1.367284         3.573279         2.207062
 H        -0.701326         1.825708         2.523836
