19
Iteration:  4935charge 0 multiplicity 1
 O         0.362438         0.275971         0.356751
 C        -0.694982         1.173582         0.701031
 C        -2.072188         0.936615         0.269307
 C        -1.434817         2.233231        -0.212897
 C        -1.392770         3.274470         0.827644
 C        -0.461381         4.315159         0.275898
 O         0.893258         3.748982         0.221797
 C         0.906656         3.095436         1.533569
 C        -0.382016         2.348480         1.651359
 H        -0.148959        -0.497036         0.256029
 H        -2.049576         0.268447        -0.638671
 H        -2.932566         0.815732         1.034486
 H        -1.181642         2.384624        -1.268237
 H        -2.278544         3.544984         1.339110
 H        -0.544515         4.521118        -0.775401
 H        -0.395330         5.217184         0.834634
 H         1.848560         2.557552         1.823186
 H         1.076367         3.910466         2.302436
 H        -0.495391         2.124230         2.775291
