19
Iteration:  3899charge 0 multiplicity 1
 O         0.294648         0.187931         0.446199
 C        -0.727248         1.152219         0.582633
 C        -2.154919         0.934624         0.478279
 C        -1.527954         2.085204        -0.415383
 C        -1.261954         3.249279         0.713770
 C        -0.316873         4.298603         0.103891
 O         0.884010         4.284265         0.910105
 C         1.062940         2.919374         1.251516
 C        -0.470506         2.280159         1.516411
 H        -0.178258        -0.730154         0.320106
 H        -2.376299         0.147648        -0.242292
 H        -2.930557         1.156333         1.271642
 H        -1.779062         2.329977        -1.436089
 H        -2.076934         3.672213         1.180909
 H         0.054034         4.011963        -0.917791
 H        -0.761955         5.250042        -0.047590
 H         1.500210         2.375937         0.409812
 H         1.882337         2.734091         1.966057
 H        -0.820749         2.251749         2.541647
