19
Iteration:  4326charge 0 multiplicity 1
 O         0.253572         0.157177         0.258020
 C        -0.679539         1.144271         0.633817
 C        -2.194177         0.954447         0.597281
 C        -1.520861         1.952755        -0.319208
 C        -1.271002         3.202000         0.432660
 C        -0.203292         4.432839         0.141444
 O         0.848412         4.319490         1.040077
 C         0.988538         2.867860         1.242772
 C        -0.451779         2.374549         1.471400
 H         0.211039        -0.637592         0.937857
 H        -2.390868         0.041490         0.130276
 H        -2.751291         1.166701         1.429465
 H        -1.461515         1.679421        -1.364885
 H        -2.122096         3.640770         0.897044
 H         0.253682         4.416652        -0.835491
 H        -0.754868         5.263834         0.436883
 H         1.163802         2.478304         0.220847
 H         1.779671         2.572669         2.030292
 H        -0.965143         2.396230         2.456867
