19
Iteration:  4220charge 0 multiplicity 1
 O         0.279575         0.194651         0.258919
 C        -0.710389         1.113442         0.640489
 C        -2.193891         0.984889         0.587712
 C        -1.528707         1.985233        -0.370490
 C        -1.289630         3.177444         0.531694
 C        -0.342001         4.394201         0.136889
 O         0.970547         4.247792         0.830406
 C         1.026119         2.970772         1.437983
 C        -0.411442         2.342534         1.554701
 H        -0.160739        -0.724699         0.028633
 H        -2.483584         0.022795         0.070270
 H        -3.016014         1.078886         1.419536
 H        -1.488111         1.890165        -1.450355
 H        -2.297413         3.569438         0.852891
 H        -0.057894         4.295648        -0.873464
 H        -0.833183         5.346995         0.127819
 H         1.582054         2.346861         0.808451
 H         1.632196         2.931375         2.335311
 H        -0.862286         2.330073         2.535004
