19
Iteration:   181charge 0 multiplicity 1
 O         0.319432         0.509411         0.178591
 C        -0.697635         1.263154         0.640771
 C        -2.055400         0.821381         0.616617
 C        -1.711647         2.093127        -0.154759
 C        -1.418840         3.284102         0.767224
 C        -0.365545         4.297119         0.266042
 O         1.007305         3.692031         0.190385
 C         1.007866         3.010141         1.412620
 C        -0.393860         2.427341         1.670624
 H         0.519292        -0.143710         0.850564
 H        -2.151394         0.107519        -0.210702
 H        -2.680082         0.576683         1.542802
 H        -2.044054         2.185456        -1.160493
 H        -2.271253         3.717442         1.238619
 H        -0.433564         4.764132        -0.808035
 H        -0.335024         5.041379         1.066406
 H         1.763337         2.146730         1.365058
 H         1.298216         3.657773         2.290827
 H        -0.660675         2.144565         2.770216
