19
Iteration:  4792charge 0 multiplicity 1
 O         0.312042         0.260499         0.280012
 C        -0.681557         1.138188         0.576584
 C        -2.211366         0.887612         0.517572
 C        -1.633041         2.022450        -0.226917
 C        -1.259438         3.199480         0.652463
 C        -0.314198         4.309054         0.035433
 O         0.978161         4.220223         0.707371
 C         0.953604         3.000372         1.483867
 C        -0.428930         2.322719         1.523611
 H        -0.090001        -0.495981        -0.122629
 H        -2.416144        -0.098321         0.078367
 H        -2.582327         1.092013         1.598021
 H        -1.752809         2.036523        -1.305108
 H        -1.989964         3.750566         1.191469
 H        -0.128272         4.224365        -0.999659
 H        -0.739353         5.304767         0.381742
 H         1.756764         2.372273         1.102156
 H         1.366626         3.308712         2.412542
 H        -0.556355         2.041255         2.615355
