19
Iteration:  3142
 O         0.346525         0.296819         0.284319
 C        -0.734476         1.149341         0.657495
 C        -2.137044         0.895535         0.342104
 C        -1.511950         2.155879        -0.250978
 C        -1.293867         3.249371         0.836026
 C        -0.346735         4.409081         0.262416
 O         0.935575         3.788282         0.322334
 C         0.930232         3.106540         1.520757
 C        -0.451923         2.298394         1.614707
 H         0.311754        -0.596873         0.626051
 H        -2.228679         0.085234        -0.405279
 H        -2.950008         0.893595         1.100583
 H        -1.407105         2.507668        -1.297727
 H        -2.201583         3.720473         1.366419
 H        -0.679708         4.699228        -0.803392
 H        -0.454425         5.361556         0.858726
 H         1.801236         2.577499         1.487728
 H         0.938795         3.881331         2.378342
 H        -0.481012         2.107353         2.680582
