19
Iteration:  4460
 O         0.317847         0.269619         0.349958
 C        -0.707921         1.176078         0.566358
 C        -2.170377         0.909221         0.596767
 C        -1.683462         2.074042        -0.277485
 C        -1.260393         3.287243         0.590679
 C        -0.188825         4.223522         0.004857
 O         0.780562         4.268522         0.988714
 C         1.064323         2.884079         1.336867
 C        -0.419307         2.311669         1.440361
 H         0.257768        -0.283856        -0.513152
 H        -2.317675        -0.017023         0.046560
 H        -2.673729         0.844594         1.546022
 H        -1.921650         1.908688        -1.348185
 H        -2.072726         3.829845         1.091882
 H         0.273762         3.694038        -0.947512
 H        -0.415054         5.250524        -0.194222
 H         1.602953         2.416488         0.466324
 H         1.495221         2.943836         2.375759
 H        -0.806365         2.204687         2.477662
