19
Iteration:  1690charge 0 multiplicity 1
 O         0.291780         0.344921         0.177330
 C        -0.679186         1.141769         0.742077
 C        -2.210510         0.821400         0.574371
 C        -1.496569         2.035320        -0.194732
 C        -1.297427         3.321080         0.682486
 C        -0.349321         4.438499         0.332389
 O         0.912018         3.828981         0.286070
 C         1.020579         3.030111         1.400182
 C        -0.412222         2.384045         1.622273
 H         0.000003        -0.657832         0.253497
 H        -2.567691         0.099645        -0.225360
 H        -2.936379         1.091993         1.371320
 H        -1.323659         2.177209        -1.256762
 H        -2.280734         3.728827         1.148801
 H        -0.530019         4.943600        -0.642659
 H        -0.290382         5.260756         1.147033
 H         1.757111         2.119078         1.370957
 H         1.314090         3.703616         2.306265
 H        -0.693292         2.455892         2.689416
