19
Iteration:  4320
 O         0.269727         0.171765         0.264604
 C        -0.730332         1.124318         0.641490
 C        -2.199750         0.904649         0.635712
 C        -1.492038         1.968125        -0.336979
 C        -1.209457         3.217047         0.426174
 C        -0.224476         4.432804         0.142964
 O         0.850721         4.288674         1.071158
 C         0.955015         2.877686         1.211966
 C        -0.441798         2.421227         1.468385
 H         0.090506        -0.674954         0.752442
 H        -2.490737        -0.023063         0.003742
 H        -2.848917         1.112394         1.617253
 H        -1.324999         1.782056        -1.411724
 H        -2.240646         3.688188         0.695093
 H         0.097700         4.318680        -0.959300
 H        -0.692342         5.444537         0.443570
 H         1.283059         2.436359         0.246987
 H         1.680985         2.616852         1.961821
 H        -0.757469         2.370849         2.515995
