19
Iteration:   604charge 0 multiplicity 1
 O         0.246036         0.108854         0.321821
 C        -0.603566         1.140600         0.683831
 C        -2.089023         0.903961         0.495094
 C        -1.518870         2.141046        -0.133659
 C        -1.293381         3.305878         0.730434
 C        -0.381561         4.444759         0.328027
 O         0.877780         3.964450         0.219492
 C         0.947207         3.003383         1.303256
 C        -0.317704         2.371848         1.599894
 H        -0.298684        -0.764699         0.320894
 H        -2.316204         0.018941        -0.109121
 H        -2.889120         0.903923         1.341909
 H        -1.891977         2.237402        -1.154229
 H        -2.212462         3.775789         1.211499
 H        -0.799779         5.082550        -0.430033
 H        -0.385672         5.175747         1.271048
 H         1.934451         2.406136         1.228598
 H         1.100169         3.628557         2.312350
 H        -0.521096         2.395936         2.746103
