19
Iteration:  4663
 O         0.224876         0.060072         0.297105
 C        -0.686938         1.106475         0.582286
 C        -2.143909         1.003525         0.686280
 C        -1.502091         1.951652        -0.345429
 C        -1.181939         3.223948         0.478348
 C        -0.335213         4.396134         0.081561
 O         0.800384         4.351767         0.959207
 C         1.016122         2.928473         1.354453
 C        -0.346959         2.319636         1.461996
 H        -0.317880        -0.697185        -0.019682
 H        -2.472357         0.030617         0.306528
 H        -2.673313         1.283255         1.635597
 H        -1.884313         1.766197        -1.360703
 H        -2.051175         3.739796         1.054986
 H        -0.046324         4.488699        -1.006937
 H        -0.809898         5.419837         0.146325
 H         1.627719         2.473035         0.452285
 H         1.693975         3.057012         2.171482
 H        -0.687684         2.472892         2.438918
