19
Iteration:  1509charge 0 multiplicity 1
 O         0.304336         0.364820         0.204027
 C        -0.678027         1.190623         0.773268
 C        -2.121580         0.861239         0.412079
 C        -1.525072         2.099899        -0.113844
 C        -1.299374         3.317276         0.786218
 C        -0.386973         4.415556         0.327806
 O         0.907847         3.789000         0.143734
 C         0.982258         2.960184         1.377067
 C        -0.461675         2.396475         1.774024
 H         0.017873        -0.603129         0.488093
 H        -2.134317         0.084044        -0.397612
 H        -2.899073         0.785241         1.177133
 H        -1.309185         2.126141        -1.156107
 H        -2.247905         3.668926         1.129709
 H        -0.612595         5.000690        -0.636791
 H        -0.201822         5.199161         1.099303
 H         1.575519         2.149915         1.015704
 H         1.449284         3.565108         2.260907
 H        -0.537887         2.442904         2.901797
