19
Iteration:  1552
 O         0.472276         0.351340         0.244776
 C        -0.608483         1.205629         0.587799
 C        -2.156765         0.993539         0.517693
 C        -1.634777         2.250330        -0.193255
 C        -1.363882         3.263306         0.827365
 C        -0.417965         4.337340         0.191700
 O         0.888147         3.702706         0.220620
 C         0.963665         2.946771         1.512102
 C        -0.366629         2.307231         1.682671
 H         0.164266        -0.533695         0.546546
 H        -2.643427         0.327945        -0.280896
 H        -2.673455         1.173988         1.526434
 H        -2.003516         2.412070        -1.180289
 H        -2.089429         3.793569         1.385460
 H        -0.732508         4.678017        -0.893966
 H        -0.432807         5.262940         0.863109
 H         1.752102         2.210620         1.575317
 H         1.212005         3.852539         2.245559
 H        -0.681619         2.075317         2.736437
