19
Iteration:   551charge 0 multiplicity 1
 O         0.374080         0.360254         0.235768
 C        -0.657583         1.182756         0.627184
 C        -2.113069         0.954967         0.562660
 C        -1.594270         2.218431        -0.151811
 C        -1.356510         3.261373         0.836564
 C        -0.440465         4.346844         0.223547
 O         0.909203         3.755733         0.204601
 C         1.046890         3.001623         1.395199
 C        -0.423078         2.337362         1.679809
 H         0.437683        -0.484783         0.830252
 H        -2.406675         0.281448        -0.227719
 H        -2.883322         1.055926         1.389158
 H        -1.633256         2.248830        -1.234377
 H        -2.356431         3.667520         1.282835
 H        -0.838236         4.571343        -0.794952
 H        -0.354322         5.221365         0.860082
 H         1.752088         2.165336         1.199088
 H         1.433541         3.602701         2.265402
 H        -0.612109         1.949829         2.790240
