19
Iteration:   402
 O         0.372356         0.245236         0.181907
 C        -0.648032         1.152398         0.678489
 C        -2.102392         1.048568         0.634212
 C        -1.467348         2.053946        -0.272526
 C        -1.344669         3.295764         0.834840
 C        -0.447735         4.478180         0.288307
 O         0.858198         3.876460         0.196902
 C         0.989462         2.912282         1.429093
 C        -0.401596         2.320691         1.666381
 H         0.186555        -0.697584         0.405449
 H        -2.490087         0.136164         0.253040
 H        -2.698863         1.364497         1.448826
 H        -1.753187         2.093006        -1.341486
 H        -2.241314         3.675828         1.167548
 H        -0.802227         4.861368        -0.696694
 H        -0.456555         5.371145         0.956952
 H         1.676025         2.203553         1.094253
 H         1.274461         3.507828         2.326695
 H        -0.698445         2.167932         2.702031
