19
Iteration:  3643
 O         0.205078        -0.002419         0.324003
 C        -0.716598         1.059345         0.605408
 C        -2.197472         0.996675         0.688135
 C        -1.508236         1.974525        -0.346568
 C        -1.205117         3.207856         0.548551
 C        -0.326527         4.374919         0.055313
 O         0.819564         4.381994         0.892720
 C         1.035961         2.941098         1.336847
 C        -0.319882         2.325580         1.490202
 H         0.611891         0.180261        -0.590364
 H        -2.609833         0.229955         0.101375
 H        -2.798757         1.432959         1.417309
 H        -1.915482         2.159041        -1.338174
 H        -2.067165         3.606886         0.968839
 H        -0.137578         4.315682        -1.044527
 H        -0.723805         5.463040         0.152913
 H         1.845516         2.272118         0.939309
 H         1.530047         3.149585         2.367241
 H        -0.667723         2.330747         2.539184
