19
Iteration:  2696
 O         0.395358         0.281307         0.254531
 C        -0.712618         1.168681         0.632547
 C        -2.240329         0.933867         0.539346
 C        -1.597380         2.115855        -0.214592
 C        -1.264901         3.271058         0.810185
 C        -0.460839         4.319404         0.144270
 O         0.893290         3.829000         0.311705
 C         1.034585         2.987618         1.455908
 C        -0.335551         2.400959         1.668199
 H         1.235813         0.546728         0.535031
 H        -2.643431         0.109061        -0.069975
 H        -2.799780         0.986748         1.486946
 H        -1.702491         2.102113        -1.333304
 H        -2.208005         3.845878         1.222472
 H        -0.726353         4.515433        -0.855298
 H        -0.610154         5.306177         0.693472
 H         1.640022         2.221006         1.258112
 H         1.243402         3.624773         2.329338
 H        -0.511081         2.373817         2.731230
