19
Iteration:  2926charge 0 multiplicity 1
 O         0.367734         0.360576         0.425380
 C        -0.725914         1.216762         0.586879
 C        -2.197962         0.869697         0.481835
 C        -1.653733         2.067645        -0.264811
 C        -1.357129         3.285477         0.737703
 C        -0.399054         4.320117         0.241691
 O         0.986102         3.939208         0.411130
 C         1.073548         2.983267         1.427139
 C        -0.377180         2.300209         1.578932
 H         0.378612         0.079674        -0.577978
 H        -2.600194         0.058439        -0.088245
 H        -2.839225         0.984612         1.357651
 H        -1.598905         2.261658        -1.336523
 H        -2.170803         3.697482         1.196827
 H        -0.527731         4.469469        -0.793838
 H        -0.462649         5.325309         0.635835
 H         1.859001         2.111911         1.166448
 H         1.175933         3.354539         2.442324
 H        -0.611224         2.119291         2.642610
