19
Iteration:  2492charge 0 multiplicity 1
 O         0.280857         0.169568         0.289332
 C        -0.671954         1.233515         0.639329
 C        -2.130994         0.884377         0.457210
 C        -1.658396         2.135799        -0.172723
 C        -1.333040         3.239439         0.850740
 C        -0.382644         4.364881         0.239846
 O         0.971490         3.759166         0.245650
 C         0.954742         3.100854         1.441749
 C        -0.320285         2.422106         1.647878
 H         1.032995         0.659390        -0.072174
 H        -2.097820         0.146705        -0.283530
 H        -2.834539         0.867162         1.252231
 H        -1.993281         2.430685        -1.178486
 H        -2.269626         3.733971         1.359031
 H        -0.684619         4.597833        -0.785235
 H        -0.404598         5.272009         0.844321
 H         1.957682         2.550183         1.578976
 H         0.902744         3.866238         2.254825
 H        -0.525455         2.202794         2.711912
