19
Iteration:  4256charge 0 multiplicity 1
 O         0.218928         0.078984         0.473465
 C        -0.645726         1.141759         0.544803
 C        -2.182826         0.970442         0.395013
 C        -1.568482         2.130327        -0.277142
 C        -1.291737         3.294174         0.746867
 C        -0.340788         4.313799         0.022199
 O         0.805352         4.286419         0.825733
 C         1.119619         2.956745         1.403689
 C        -0.335732         2.257132         1.460983
 H        -0.173606        -0.771551        -0.015803
 H        -2.194387         0.250519        -0.463140
 H        -2.889158         0.837786         1.217230
 H        -1.477508         2.479468        -1.332284
 H        -2.241139         3.495795         1.162901
 H        -0.088868         3.796056        -0.885629
 H        -0.595558         5.462330         0.043486
 H         1.636664         2.453605         0.570208
 H         1.598796         3.151433         2.291793
 H        -0.409414         2.012667         2.586050
