19
Iteration:   434
 O         0.257650         0.328244         0.175876
 C        -0.687654         1.169409         0.635885
 C        -2.125641         0.828417         0.612914
 C        -1.792259         2.054030        -0.235571
 C        -1.324626         3.270769         0.735958
 C        -0.389713         4.389015         0.219109
 O         0.985204         3.896368         0.278411
 C         1.129599         3.073107         1.525589
 C        -0.288741         2.348873         1.617201
 H         0.157747        -0.625833         0.584957
 H        -2.275336        -0.020161        -0.023487
 H        -2.671757         0.840420         1.546146
 H        -2.199367         2.090897        -1.265442
 H        -2.148554         3.744329         1.161501
 H        -0.611993         4.836643        -0.790662
 H        -0.526904         5.130934         1.059202
 H         2.041813         2.534037         1.506595
 H         1.225118         3.794925         2.484587
 H        -0.513689         2.251665         2.615288
