19
Iteration:  2218
 O         0.351823         0.298230         0.223863
 C        -0.638628         1.177369         0.541150
 C        -2.090426         0.969993         0.678880
 C        -1.615025         2.068993        -0.276385
 C        -1.358408         3.287363         0.717462
 C        -0.472806         4.428218         0.259840
 O         1.010360         3.855738         0.312458
 C         0.983950         2.986167         1.482370
 C        -0.421839         2.346854         1.623351
 H         0.068288        -0.656891         0.583119
 H        -2.408578         0.132935         0.095979
 H        -2.725317         1.208223         1.502055
 H        -1.907030         2.221026        -1.375686
 H        -2.299240         3.574450         1.095546
 H        -0.387997         4.791298        -0.741320
 H        -0.678480         5.253735         0.949043
 H         1.706058         2.105107         1.403729
 H         1.274872         3.580165         2.391919
 H        -0.461129         1.924154         2.678051
