19
Iteration:  3486charge 0 multiplicity 1
 O         0.103093         0.048953         0.347366
 C        -0.630615         1.176001         0.637684
 C        -2.046428         0.934835         0.497250
 C        -1.573991         2.095030        -0.271584
 C        -1.357410         3.200190         0.653423
 C        -0.404957         4.284126         0.098510
 O         0.935873         4.228263         0.666885
 C         1.030554         3.038485         1.434086
 C        -0.320594         2.310997         1.497028
 H         0.964170         0.381016         0.049095
 H        -2.415910         0.089504        -0.079871
 H        -2.612056         1.265558         1.423541
 H        -1.624449         2.256141        -1.320779
 H        -2.139505         3.628074         1.220561
 H        -0.228549         4.320142        -0.990572
 H        -0.802640         5.368208         0.304406
 H         1.766701         2.237167         0.962561
 H         1.354556         3.153058         2.592371
 H        -0.641232         2.163559         2.557716
