19
Iteration:  4072charge 0 multiplicity 1
 O         0.256768         0.140299         0.303021
 C        -0.716042         1.096795         0.532932
 C        -2.179324         0.922019         0.604958
 C        -1.633753         2.046639        -0.313420
 C        -1.220118         3.281183         0.535791
 C        -0.219909         4.266810         0.035687
 O         0.837441         4.374908         0.947770
 C         1.049289         2.962930         1.436457
 C        -0.357703         2.318126         1.415040
 H        -0.108507        -0.731772         0.313345
 H        -2.557539         0.068530         0.036899
 H        -2.810995         1.122587         1.446023
 H        -1.898428         1.882971        -1.357806
 H        -2.125294         3.715324         1.116097
 H         0.098683         3.891643        -0.897802
 H        -0.628052         5.284905         0.092251
 H         1.649458         2.363426         0.883611
 H         1.435241         3.202529         2.452353
 H        -0.618809         2.014339         2.441692
