19
Iteration:  4403
 O         0.136962         0.152885         0.164145
 C        -0.654716         1.125136         0.647206
 C        -2.135739         0.874347         0.487157
 C        -1.495421         2.019201        -0.260063
 C        -1.278813         3.274582         0.658157
 C        -0.296420         4.237731         0.004959
 O         0.862211         4.336545         0.945265
 C         1.044564         2.993692         1.401470
 C        -0.390099         2.378333         1.527744
 H         0.207613        -0.549900         0.751161
 H        -2.507990         0.052899        -0.127174
 H        -2.787058         1.242797         1.142355
 H        -1.639501         1.855223        -1.335579
 H        -2.011301         3.880246         1.059473
 H        -0.034011         3.974465        -1.060033
 H        -0.670273         5.251638        -0.080221
 H         1.696979         2.364483         0.772815
 H         1.542338         2.853115         2.429373
 H        -0.697528         2.197170         2.606870
