19
Iteration:  1068charge 0 multiplicity 1
 O         0.357332         0.383611         0.095141
 C        -0.679597         1.204142         0.612619
 C        -2.109752         0.941257         0.681127
 C        -1.642364         2.136606        -0.181111
 C        -1.340539         3.282073         0.756146
 C        -0.437130         4.311010         0.152491
 O         0.958432         3.831992         0.341611
 C         1.021102         2.952121         1.485301
 C        -0.386558         2.339896         1.667132
 H         0.416915        -0.439913         0.595409
 H        -2.403148         0.048183         0.149052
 H        -2.632271         1.185767         1.561706
 H        -1.815939         2.275760        -1.289816
 H        -2.199103         3.708605         1.349958
 H        -0.532826         4.373289        -0.966372
 H        -0.537842         5.270464         0.692348
 H         1.703500         2.204435         1.279834
 H         1.255357         3.502092         2.434596
 H        -0.793265         2.193157         2.604112
