19
Iteration:  4367
 O         0.134551         0.059416         0.293349
 C        -0.691725         1.098856         0.593798
 C        -2.185437         0.995108         0.370416
 C        -1.534076         2.037022        -0.292904
 C        -1.228772         3.252771         0.690559
 C        -0.327647         4.235966         0.019231
 O         0.809497         4.370693         0.935543
 C         1.096284         2.998022         1.386966
 C        -0.284001         2.258738         1.495973
 H         0.525579        -0.136422         1.094006
 H        -2.446534         0.196511        -0.261794
 H        -2.934485         1.233297         1.164739
 H        -1.656746         2.251053        -1.345205
 H        -1.988314         3.664431         1.349974
 H        -0.042862         3.981183        -1.054279
 H        -0.880575         5.265866         0.146926
 H         1.805117         2.525450         0.691703
 H         1.563647         3.245931         2.290508
 H        -0.581442         2.152685         2.599981
