19
Iteration:  4875charge 0 multiplicity 1
 O         0.360951         0.241191         0.176567
 C        -0.725091         1.147175         0.590351
 C        -2.183960         0.907368         0.635941
 C        -1.548566         1.968757        -0.329342
 C        -1.282038         3.228250         0.508899
 C        -0.326020         4.399882         0.288453
 O         0.946952         4.033711         0.542040
 C         0.994172         2.985436         1.484619
 C        -0.497303         2.420854         1.616377
 H         0.704796         0.008570         1.042846
 H        -2.505862         0.014552         0.074052
 H        -2.890889         1.235638         1.292786
 H        -1.375360         1.869324        -1.428942
 H        -2.194829         3.615267         1.079430
 H        -0.421537         4.879631        -0.730564
 H        -0.746305         5.192170         0.930939
 H         1.533923         2.141404         1.096147
 H         1.243203         3.401187         2.467803
 H        -0.832876         2.326259         2.621482
