19
Iteration:  4630charge 0 multiplicity 1
 O         0.218677         0.126221         0.312200
 C        -0.696080         1.127585         0.626756
 C        -2.237628         0.905066         0.529426
 C        -1.525880         1.993408        -0.347382
 C        -1.221222         3.251176         0.605658
 C        -0.306125         4.343698         0.092084
 O         0.844775         4.355885         0.955184
 C         1.093859         2.961218         1.269575
 C        -0.364160         2.368161         1.463524
 H         0.236128        -0.530615         1.116335
 H        -2.399723        -0.046050        -0.031578
 H        -2.881186         0.976378         1.436088
 H        -1.839524         1.903468        -1.416744
 H        -2.182994         3.569936         1.174304
 H        -0.121328         3.920488        -0.924276
 H        -0.873541         5.309160         0.146224
 H         1.569417         2.430401         0.319437
 H         1.791307         2.709481         2.057753
 H        -0.616720         2.432215         2.478756
