19
Iteration:  4241charge 0 multiplicity 1
 O         0.227873         0.086607         0.391927
 C        -0.722437         1.161295         0.595731
 C        -2.156690         0.885217         0.400375
 C        -1.538172         2.114120        -0.292458
 C        -1.259025         3.248011         0.640812
 C        -0.340936         4.308495         0.072296
 O         0.884135         4.292785         0.827216
 C         1.038662         2.975349         1.367688
 C        -0.299510         2.314010         1.563897
 H        -0.284748        -0.586078        -0.070374
 H        -2.463583         0.023592        -0.250406
 H        -2.991701         1.078390         1.237059
 H        -1.661844         2.112169        -1.369363
 H        -2.042261         3.832990         1.248398
 H        -0.195682         4.196661        -1.000483
 H        -0.788881         5.264856         0.179708
 H         1.789047         2.392815         0.867485
 H         1.403047         3.179641         2.424276
 H        -0.603600         2.140744         2.560446
