19
Iteration:  3191
 O         0.311754         0.285578         0.252385
 C        -0.671012         1.250456         0.611046
 C        -2.068403         0.879801         0.549787
 C        -1.498736         2.062820        -0.314586
 C        -1.322092         3.324632         0.546520
 C        -0.363383         4.451653         0.333633
 O         0.947782         3.924783         0.408994
 C         0.891706         2.856903         1.515745
 C        -0.477549         2.308576         1.589272
 H         0.642176        -0.102008         1.105208
 H        -2.297737        -0.018715        -0.006372
 H        -2.718203         1.134656         1.396561
 H        -1.633480         2.072259        -1.381944
 H        -2.242751         3.739479         1.099820
 H        -0.477280         4.941038        -0.604376
 H        -0.618068         5.156587         1.203621
 H         1.714506         2.164816         1.071244
 H         1.111021         3.362871         2.425174
 H        -0.905251         2.338528         2.615041
