19
Iteration:  4315charge 0 multiplicity 1
 O         0.270293         0.187885         0.275543
 C        -0.763539         1.102848         0.658706
 C        -2.201067         0.852183         0.644117
 C        -1.461306         1.953290        -0.363248
 C        -1.194917         3.284711         0.443845
 C        -0.258567         4.428080         0.134448
 O         0.856502         4.264279         1.093215
 C         0.938138         2.888976         1.177306
 C        -0.433297         2.419891         1.479401
 H         0.017637        -0.659500         0.634930
 H        -2.588052         0.080479         0.057296
 H        -2.794302         1.106917         1.442017
 H        -1.404938         1.890146        -1.447969
 H        -2.160634         3.681403         0.625547
 H        -0.009054         4.393200        -0.922987
 H        -0.589640         5.422096         0.221546
 H         1.443176         2.397609         0.309018
 H         1.691087         2.664303         2.018719
 H        -0.530935         2.415783         2.584367
