19
Iteration:  4274charge 0 multiplicity 1
 O         0.259887         0.110034         0.480004
 C        -0.662386         1.145649         0.586311
 C        -2.150600         0.937340         0.371043
 C        -1.596754         2.184097        -0.380302
 C        -1.249077         3.219008         0.682759
 C        -0.356622         4.234150         0.084747
 O         0.871095         4.318910         0.912284
 C         1.032659         2.962364         1.244984
 C        -0.326219         2.288575         1.561879
 H        -0.229967        -0.740763         0.099809
 H        -2.496195         0.070220        -0.291910
 H        -2.907660         1.228213         1.235827
 H        -1.883363         2.295393        -1.432295
 H        -2.076652         3.793991         1.297455
 H         0.099039         3.905598        -0.918069
 H        -0.934341         5.118467         0.061114
 H         1.631121         2.414230         0.519843
 H         1.594937         2.898388         2.251758
 H        -0.570224         2.286282         2.601355
