19
Iteration:  3760
 O         0.209450         0.169671         0.175896
 C        -0.678724         1.116383         0.631227
 C        -2.200962         0.910945         0.605866
 C        -1.556441         2.012671        -0.267017
 C        -1.230620         3.310462         0.576936
 C        -0.224895         4.367900        -0.047123
 O         0.843342         4.210839         0.903976
 C         0.985517         2.929262         1.417706
 C        -0.411296         2.307268         1.565835
 H         1.056336         0.318008         0.590082
 H        -2.450201         0.006417         0.038701
 H        -2.835247         1.084279         1.549598
 H        -1.837863         1.813817        -1.293734
 H        -2.108086         3.965526         1.049757
 H         0.122485         4.151553        -1.022723
 H        -0.656249         5.426951        -0.048624
 H         1.581178         2.363058         0.735160
 H         1.636884         2.752714         2.259123
 H        -0.941028         2.350640         2.570378
