19
Iteration:  4799
 O         0.314465         0.229617         0.276383
 C        -0.700910         1.137313         0.596755
 C        -2.155876         0.907914         0.543691
 C        -1.633586         2.083436        -0.250665
 C        -1.253025         3.254690         0.646099
 C        -0.314018         4.278267         0.091693
 O         0.933155         4.216368         0.653908
 C         0.958556         3.045562         1.493084
 C        -0.368405         2.256402         1.564443
 H        -0.200817        -0.582347        -0.042567
 H        -2.364654         0.033203        -0.123631
 H        -2.635942         0.911493         1.448467
 H        -1.692813         2.204185        -1.364757
 H        -2.148460         3.757454         1.076731
 H        -0.244162         4.078530        -1.039616
 H        -0.772239         5.234083         0.157642
 H         1.682923         2.263284         1.116017
 H         1.375899         3.158971         2.581809
 H        -0.738577         2.031235         2.588864
