19
Iteration:   748
 O         0.360310         0.360727         0.135327
 C        -0.630535         1.283932         0.582599
 C        -2.048505         0.859474         0.633898
 C        -1.595615         2.151633        -0.164179
 C        -1.347580         3.337714         0.829520
 C        -0.343890         4.340361         0.213228
 O         0.899644         3.673924         0.220895
 C         0.917000         3.045395         1.489714
 C        -0.411427         2.371153         1.675308
 H        -0.132724        -0.504103         0.416481
 H        -2.357980        -0.080600         0.069407
 H        -2.725594         1.084386         1.500603
 H        -1.693739         2.345950        -1.226903
 H        -2.322529         3.682941         1.307496
 H        -0.471585         4.732490        -0.793700
 H        -0.346087         5.163501         0.917308
 H         1.698980         2.273477         1.425834
 H         1.069362         3.752600         2.310501
 H        -0.732708         2.091519         2.732735
