19
Iteration:   818
 O         0.315958         0.342177         0.172315
 C        -0.630323         1.238058         0.526566
 C        -2.079147         0.958984         0.742808
 C        -1.657354         2.159622        -0.236649
 C        -1.340366         3.230407         0.743555
 C        -0.381008         4.320271         0.151631
 O         0.878970         3.797927         0.376648
 C         0.999431         2.955531         1.509601
 C        -0.344046         2.358755         1.520408
 H         0.781283        -0.016636         0.933866
 H        -2.450731         0.100992         0.265569
 H        -2.558486         1.190256         1.661734
 H        -1.882124         2.347453        -1.278049
 H        -2.119201         3.715047         1.339481
 H        -0.622378         4.526092        -0.925599
 H        -0.612489         5.176804         0.812489
 H         1.745105         2.274587         1.326369
 H         1.089400         3.533177         2.462927
 H        -0.683338         2.022816         2.602174
