19
Iteration:  3219
 O         0.377530         0.236131         0.285181
 C        -0.710710         1.165318         0.613559
 C        -2.214708         0.824014         0.396805
 C        -1.588067         2.112016        -0.283187
 C        -1.341257         3.259395         0.708945
 C        -0.370521         4.392306         0.252547
 O         0.983329         3.968443         0.428407
 C         1.010112         3.052549         1.551852
 C        -0.387207         2.329569         1.598720
 H         0.058505        -0.703053         0.609851
 H        -2.432983        -0.045283        -0.236083
 H        -2.964966         1.178697         1.107319
 H        -1.638154         2.383346        -1.347608
 H        -2.108791         3.672421         1.355391
 H        -0.441052         4.514098        -0.873844
 H        -0.624894         5.240987         0.875367
 H         1.871586         2.506944         1.388572
 H         1.066886         3.694566         2.501841
 H        -0.712649         2.434764         2.621208
