19
Iteration:  3460
 O         0.239003         0.154218         0.358817
 C        -0.666594         1.194916         0.650587
 C        -2.182543         0.845340         0.359513
 C        -1.588086         2.105777        -0.198306
 C        -1.311702         3.282197         0.747646
 C        -0.380940         4.335584         0.029461
 O         0.901145         4.121906         0.606922
 C         1.035823         2.930771         1.442010
 C        -0.361011         2.367270         1.629463
 H         1.163430         0.553741         0.108898
 H        -2.350785        -0.047296        -0.297359
 H        -2.707221         1.030997         1.295722
 H        -1.806365         2.354371        -1.272565
 H        -2.124637         3.782905         1.304413
 H        -0.247260         4.171066        -1.095907
 H        -0.656063         5.335428         0.103211
 H         1.672285         2.167729         0.977874
 H         1.505692         3.078213         2.318306
 H        -0.627468         2.188190         2.688305
