19
Iteration:  2910
 O         0.306753         0.197106         0.361782
 C        -0.703945         1.194303         0.615263
 C        -2.182154         0.871970         0.466295
 C        -1.609511         2.142055        -0.207832
 C        -1.361490         3.211114         0.776037
 C        -0.348470         4.380155         0.177019
 O         1.007935         3.947076         0.345834
 C         1.039484         3.005928         1.517515
 C        -0.422058         2.370620         1.607918
 H         0.891557         0.364324        -0.389883
 H        -2.191231         0.002158        -0.257355
 H        -3.060562         0.924608         1.200102
 H        -1.982605         2.263361        -1.229352
 H        -2.290875         3.701827         1.356198
 H        -0.607973         4.722595        -0.935323
 H        -0.719311         5.211637         0.850111
 H         1.785886         2.362509         1.194912
 H         1.458924         3.720587         2.318177
 H        -0.646819         2.074212         2.643008
