19
Iteration:  1846
 O         0.181748         0.257469         0.182759
 C        -0.676113         1.240039         0.640459
 C        -2.150468         0.838361         0.527487
 C        -1.678223         2.113117        -0.150013
 C        -1.317989         3.243615         0.740144
 C        -0.324479         4.323530         0.209013
 O         1.015137         3.960847         0.374719
 C         1.055564         3.086029         1.481525
 C        -0.350356         2.364763         1.567256
 H         0.361876        -0.427388         0.736805
 H        -2.266490        -0.033283        -0.138971
 H        -2.862925         0.652900         1.403514
 H        -1.779046         2.113154        -1.241122
 H        -2.191996         3.711935         1.317686
 H        -0.517080         4.363324        -0.913998
 H        -0.512717         5.322163         0.664867
 H         1.780959         2.284338         1.506435
 H         1.230667         3.626597         2.411143
 H        -0.477059         2.160410         2.628916
