19
Iteration:  2497
 O         0.279591         0.165053         0.259697
 C        -0.647979         1.248888         0.677994
 C        -2.151193         0.888221         0.458473
 C        -1.648955         2.102642        -0.188992
 C        -1.349950         3.303360         0.840183
 C        -0.371904         4.368304         0.227712
 O         0.951456         3.780346         0.211699
 C         0.935003         3.094790         1.472238
 C        -0.298196         2.373024         1.694815
 H         1.054517         0.585247        -0.185115
 H        -2.102744         0.030768        -0.312529
 H        -2.774244         0.934399         1.418433
 H        -1.787382         2.359199        -1.256332
 H        -2.281400         3.724339         1.308932
 H        -0.678092         4.650539        -0.810320
 H        -0.328717         5.244907         0.929397
 H         1.770622         2.492649         1.650202
 H         1.042802         3.874166         2.290808
 H        -0.605733         2.186982         2.723556
