19
Iteration:  2133
 O         0.368492         0.302253         0.160632
 C        -0.644071         1.258777         0.647649
 C        -2.145301         0.995355         0.529460
 C        -1.507410         2.084346        -0.208623
 C        -1.403049         3.309908         0.827541
 C        -0.369450         4.388664         0.254155
 O         0.857903         3.732959         0.176341
 C         0.993158         2.979926         1.536141
 C        -0.413556         2.322266         1.679198
 H         0.525083        -0.319490         0.808364
 H        -2.441332         0.083916        -0.018309
 H        -2.752587         1.247462         1.437657
 H        -1.433806         2.209292        -1.335150
 H        -2.309844         3.644690         1.332690
 H        -0.582932         4.667964        -0.790971
 H        -0.455150         5.295204         0.907559
 H         1.839952         2.410144         1.524099
 H         1.033412         3.759159         2.307407
 H        -0.557616         2.135726         2.727228
