19
Iteration:  1780
 O         0.248391         0.307015         0.181107
 C        -0.703982         1.239400         0.699980
 C        -2.163500         0.923625         0.523965
 C        -1.478659         2.011296        -0.265017
 C        -1.299644         3.266112         0.715413
 C        -0.413204         4.465592         0.348824
 O         0.880969         3.808688         0.238567
 C         1.035245         2.984223         1.467803
 C        -0.332283         2.404689         1.725342
 H         0.058294        -0.536082         0.701548
 H        -2.374668         0.008098        -0.018025
 H        -2.982831         1.173030         1.334346
 H        -1.260838         2.012101        -1.331031
 H        -2.336163         3.601387         1.081695
 H        -0.519184         4.753432        -0.756020
 H        -0.596275         5.336951         1.056036
 H         1.850019         2.365150         1.097515
 H         1.559713         3.515073         2.271290
 H        -0.585221         2.155199         2.736874
