19
Iteration:   665
 O         0.218820         0.216848         0.197787
 C        -0.677317         1.152782         0.745968
 C        -2.150398         0.911561         0.519134
 C        -1.464233         2.022161        -0.159719
 C        -1.304583         3.293311         0.795540
 C        -0.426896         4.477715         0.279666
 O         0.907231         4.008632         0.305313
 C         0.994884         2.939354         1.300586
 C        -0.346849         2.372346         1.659936
 H         0.272075        -0.554740         0.764208
 H        -2.456758         0.122711        -0.151448
 H        -2.665931         1.225806         1.383996
 H        -1.274131         1.911761        -1.288258
 H        -2.262891         3.550044         1.194319
 H        -0.731500         4.641821        -0.797387
 H        -0.522890         5.403125         0.831257
 H         1.712886         2.178891         0.899937
 H         1.528674         3.358853         2.187358
 H        -0.503408         2.301467         2.722068
