19
Iteration:  1377
 O         0.372601         0.312936         0.255278
 C        -0.637424         1.149496         0.596993
 C        -2.103078         0.960854         0.589304
 C        -1.658998         2.163515        -0.181509
 C        -1.341723         3.288663         0.783376
 C        -0.359171         4.352071         0.281954
 O         0.953673         3.826025         0.283041
 C         0.959481         3.010565         1.387956
 C        -0.443233         2.314297         1.542950
 H         0.405064        -0.516711         0.829198
 H        -2.522136         0.137140         0.005359
 H        -2.579236         1.066873         1.635529
 H        -1.927231         2.404434        -1.238920
 H        -2.267279         3.678897         1.267715
 H        -0.487230         4.671385        -0.852404
 H        -0.421971         5.252474         0.854195
 H         1.760939         2.248918         1.319279
 H         0.922483         3.628130         2.311979
 H        -0.477944         2.104670         2.724388
