19
Iteration:  1251charge 0 multiplicity 1
 O         0.248135         0.197712         0.177288
 C        -0.680592         1.153365         0.686980
 C        -2.167327         0.848598         0.613250
 C        -1.591977         2.063264        -0.149926
 C        -1.344829         3.300899         0.677393
 C        -0.407014         4.467103         0.253663
 O         0.968123         3.973837         0.329706
 C         1.074236         3.031841         1.447545
 C        -0.317797         2.374624         1.543247
 H         0.081952        -0.683050         0.681592
 H        -2.403070         0.058120        -0.038030
 H        -2.791130         0.981775         1.469699
 H        -1.735076         2.042593        -1.265685
 H        -2.258030         3.599338         1.154768
 H        -0.508397         4.798982        -0.716381
 H        -0.444182         5.304260         0.951849
 H         1.943537         2.331021         1.301069
 H         1.215672         3.511342         2.431268
 H        -0.723175         2.211769         2.535809
