19
Iteration:  1578
 O         0.307045         0.385623         0.129939
 C        -0.645586         1.256324         0.609566
 C        -2.105803         0.896337         0.678386
 C        -1.636643         2.065223        -0.214430
 C        -1.333917         3.278286         0.695733
 C        -0.303938         4.379485         0.223737
 O         0.926942         3.777442         0.341329
 C         0.927871         3.008002         1.497021
 C        -0.384114         2.345055         1.615984
 H         0.051223        -0.487229         0.374244
 H        -2.364280         0.086029         0.081403
 H        -2.570106         0.932916         1.582443
 H        -1.649838         1.843700        -1.311778
 H        -2.105064         3.859052         1.251985
 H        -0.470439         4.752307        -0.727251
 H        -0.378792         5.249155         0.943144
 H         1.762960         2.261585         1.473056
 H         1.098573         3.787669         2.334141
 H        -0.719522         2.136502         2.668383
