19
Iteration:   640
 O         0.315057         0.200246         0.380212
 C        -0.663120         1.220945         0.581858
 C        -2.226761         1.040225         0.554723
 C        -1.565673         2.080067        -0.256225
 C        -1.291998         3.205028         0.726591
 C        -0.492099         4.355675         0.330415
 O         0.874820         3.984868         0.325400
 C         1.116731         2.971169         1.319997
 C        -0.248664         2.299857         1.537224
 H        -0.003620        -0.681345         0.842287
 H        -2.615571         0.180849        -0.004722
 H        -2.718468         1.467406         1.397946
 H        -1.874551         2.294459        -1.252944
 H        -2.258699         3.569346         1.203371
 H        -0.728508         4.846774        -0.667041
 H        -0.666339         5.081062         1.207886
 H         1.933540         2.404810         0.977356
 H         1.379430         3.572270         2.308510
 H        -0.409607         2.000339         2.648111
