19
Iteration:  1400
 O         0.255310         0.282505         0.170018
 C        -0.618001         1.230149         0.629782
 C        -2.183179         1.012309         0.662627
 C        -1.526819         2.023883        -0.248425
 C        -1.323800         3.224664         0.679018
 C        -0.498229         4.390031         0.218757
 O         0.919490         3.911053         0.344761
 C         1.115918         3.012385         1.529451
 C        -0.323438         2.326761         1.607855
 H        -0.085869        -0.588899         0.545986
 H        -2.504415         0.187109         0.086094
 H        -2.905686         1.323689         1.464483
 H        -1.395144         1.967905        -1.356851
 H        -2.230923         3.394113         1.341583
 H        -0.712083         4.648356        -0.910808
 H        -0.678979         5.284879         0.772781
 H         1.686070         2.178658         1.086425
 H         1.408472         3.455766         2.486854
 H        -0.471755         2.187736         2.783483
