19
Iteration:  3850charge 0 multiplicity 1
 O         0.224880         0.173019         0.341935
 C        -0.750249         1.184450         0.601053
 C        -2.191645         0.883645         0.607487
 C        -1.537973         1.970315        -0.312659
 C        -1.228027         3.265769         0.465081
 C        -0.196757         4.286133         0.072228
 O         0.854462         4.318298         1.065687
 C         0.968129         2.899473         1.282489
 C        -0.371082         2.359005         1.466801
 H        -0.023232        -0.241777        -0.445002
 H        -2.487030        -0.102373         0.243657
 H        -2.681300         1.218194         1.472816
 H        -1.568813         2.003344        -1.413121
 H        -2.245107         3.750082         0.774422
 H         0.224440         4.238325        -0.888774
 H        -0.774685         5.266720         0.070347
 H         1.500710         2.522281         0.337032
 H         1.671690         2.673082         2.098007
 H        -0.586886         2.410519         2.561979
