19
Iteration:  2485charge 0 multiplicity 1
 O         0.255364         0.214051         0.332988
 C        -0.664679         1.182667         0.591930
 C        -2.082624         0.886542         0.478016
 C        -1.663219         2.213077        -0.147948
 C        -1.320246         3.223127         0.832887
 C        -0.403113         4.325057         0.246933
 O         0.961594         3.764903         0.246247
 C         1.040649         3.122114         1.469812
 C        -0.396994         2.375962         1.578160
 H         1.124963         0.734145         0.051164
 H        -2.286168         0.061016        -0.297102
 H        -2.996573         0.722174         1.162359
 H        -2.039846         2.417243        -1.175659
 H        -2.146437         3.711852         1.511441
 H        -0.605914         4.564983        -0.854920
 H        -0.447093         5.287762         0.796728
 H         1.922922         2.590210         1.469056
 H         0.953442         3.874542         2.313559
 H        -0.457793         2.190573         2.649099
