19
Iteration:  4931
 O         0.362677         0.268437         0.353961
 C        -0.666102         1.151157         0.659930
 C        -2.101267         0.942533         0.259444
 C        -1.442132         2.193161        -0.214807
 C        -1.385729         3.279960         0.786970
 C        -0.437009         4.344869         0.289729
 O         0.899346         3.764305         0.210970
 C         0.924347         3.120534         1.553390
 C        -0.399939         2.348716         1.705645
 H        -0.124341        -0.643234         0.337515
 H        -2.106121         0.223612        -0.491754
 H        -2.795552         0.871339         1.011394
 H        -1.430607         2.469313        -1.273303
 H        -2.279608         3.531935         1.430478
 H        -0.625360         4.454246        -0.844451
 H        -0.414269         5.257723         0.929285
 H         1.765709         2.462118         1.780019
 H         1.089086         3.915189         2.338893
 H        -0.562993         2.134279         2.747773
