19
Iteration:  3737charge 0 multiplicity 1
 O         0.278038         0.322111         0.202145
 C        -0.735445         1.188365         0.605571
 C        -2.200883         0.888965         0.651613
 C        -1.647385         2.011863        -0.307386
 C        -1.312205         3.215956         0.551382
 C        -0.205560         4.198184         0.062159
 O         0.928352         4.255335         0.956784
 C         1.037851         2.885375         1.313563
 C        -0.451132         2.362687         1.481121
 H         0.815565         0.168562         0.999727
 H        -2.641470         0.058962         0.040681
 H        -2.818973         1.275197         1.562257
 H        -1.530089         1.784711        -1.360049
 H        -2.296150         3.744536         0.965893
 H         0.167598         3.893107        -0.881177
 H        -0.698409         5.171570        -0.044205
 H         1.640124         2.389481         0.603824
 H         1.552017         2.615273         2.203741
 H        -0.708636         2.430416         2.576490
