19
Iteration:  2664charge 0 multiplicity 1
 O         0.316843         0.281037         0.321953
 C        -0.652751         1.287271         0.643397
 C        -2.104368         0.795347         0.566279
 C        -1.695088         2.120127        -0.257776
 C        -1.343667         3.297143         0.758580
 C        -0.377264         4.375007         0.218845
 O         0.938747         3.815166         0.272225
 C         0.966943         2.982415         1.448684
 C        -0.401170         2.382701         1.656352
 H         0.869412         0.699104        -0.433813
 H        -2.182824        -0.169008         0.060371
 H        -2.580539         0.885838         1.523225
 H        -1.744835         2.031153        -1.368341
 H        -2.236325         3.990931         1.192488
 H        -0.518459         4.699390        -0.767914
 H        -0.264553         5.231679         0.884384
 H         1.671124         2.171978         1.423873
 H         1.306863         3.562445         2.333225
 H        -0.515760         2.244859         2.724877
