19
Iteration:  2453charge 0 multiplicity 1
 O         0.315078         0.272699         0.264710
 C        -0.604549         1.209350         0.623618
 C        -2.138482         0.921962         0.596602
 C        -1.582434         2.145534        -0.195141
 C        -1.354324         3.297085         0.794042
 C        -0.419459         4.347569         0.212162
 O         0.930193         3.815418         0.312271
 C         0.974133         2.975366         1.404731
 C        -0.443537         2.353075         1.598282
 H         1.199818         0.577063         0.262411
 H        -2.312389         0.017022        -0.085954
 H        -2.998088         1.168995         1.344004
 H        -1.898430         2.332355        -1.249240
 H        -2.195348         3.541750         1.327487
 H        -0.452578         4.484515        -0.906227
 H        -0.476814         5.319513         0.766124
 H         1.722940         2.177346         1.350182
 H         1.345083         3.458775         2.344415
 H        -0.427597         2.281052         2.692930
