19
Iteration:  3876charge 0 multiplicity 1
 O         0.355333         0.261988         0.458314
 C        -0.767332         1.110373         0.594852
 C        -2.227515         0.928080         0.527165
 C        -1.657193         1.986527        -0.303619
 C        -1.299160         3.280522         0.518988
 C        -0.188151         4.385603         0.084556
 O         0.823843         4.248197         1.036073
 C         1.009620         2.832215         1.229767
 C        -0.342234         2.310690         1.433389
 H         0.136236        -0.481686        -0.096181
 H        -2.631671         0.216634        -0.164844
 H        -2.792725         1.229751         1.407077
 H        -1.703150         2.039168        -1.389744
 H        -2.181628         3.630587         0.924197
 H         0.259177         4.169573        -0.920135
 H        -0.567949         5.362259         0.007073
 H         1.575340         2.456021         0.388901
 H         1.822412         2.622459         1.940861
 H        -0.512428         2.370269         2.497323
