19
Iteration:  2636
 O         0.331981         0.276057         0.222502
 C        -0.640119         1.147797         0.720102
 C        -2.135799         0.947634         0.571130
 C        -1.527107         2.094752        -0.193854
 C        -1.382087         3.294371         0.749760
 C        -0.377861         4.348461         0.242784
 O         0.907320         3.741275         0.228832
 C         0.942872         3.124848         1.510072
 C        -0.406765         2.332421         1.627311
 H         0.458873         0.581574        -0.682792
 H        -2.415352         0.054236        -0.029782
 H        -2.630579         1.123886         1.526909
 H        -1.704058         2.025809        -1.270043
 H        -2.231174         3.784079         1.025553
 H        -0.547816         4.798864        -0.813735
 H        -0.224898         5.172760         0.976746
 H         1.884993         2.464604         1.749920
 H         1.105701         3.844816         2.331840
 H        -0.592242         2.150647         2.726050
