19
Iteration:   199
 O         0.344126         0.516403         0.042172
 C        -0.701802         1.202519         0.726450
 C        -2.192949         0.719644         0.652797
 C        -1.677037         2.056648        -0.096815
 C        -1.305117         3.323136         0.763545
 C        -0.275991         4.335125         0.202689
 O         0.953196         3.749022         0.195165
 C         0.987019         3.035198         1.529463
 C        -0.410019         2.406078         1.656114
 H         0.373050        -0.347942         0.435251
 H        -2.335470        -0.255041         0.090823
 H        -2.893030         0.966309         1.463043
 H        -1.515041         2.007808        -1.212284
 H        -2.150553         3.889160         1.227161
 H        -0.597685         4.638793        -0.800528
 H        -0.323530         5.158627         0.953919
 H         1.855001         2.340518         1.420999
 H         1.097146         3.851341         2.216592
 H        -0.743176         2.339056         2.676656
