19
Iteration:  3384charge 0 multiplicity 1
 O         0.251753         0.137937         0.229607
 C        -0.619917         1.172383         0.537067
 C        -2.086298         0.891909         0.560236
 C        -1.556262         2.102367        -0.283694
 C        -1.326430         3.235787         0.732961
 C        -0.354436         4.416885         0.205696
 O         0.991733         3.831413         0.368689
 C         0.858512         3.207382         1.636295
 C        -0.424033         2.323006         1.611896
 H         0.874263         0.371797        -0.441238
 H        -2.421394         0.003243        -0.035469
 H        -2.754736         1.258282         1.350521
 H        -1.682376         2.118070        -1.389247
 H        -2.154165         3.642141         1.209532
 H        -0.400124         4.823062        -0.853176
 H        -0.413407         5.222223         0.953120
 H         1.775296         2.608562         1.954859
 H         0.689141         3.959596         2.524216
 H        -0.690008         2.047698         2.637901
