19
Iteration:  3317charge 0 multiplicity 1
 O         0.425749         0.355274         0.386538
 C        -0.690262         1.232020         0.666143
 C        -2.116468         0.868528         0.462063
 C        -1.601465         2.094830        -0.263670
 C        -1.370959         3.287306         0.665080
 C        -0.376096         4.371244         0.220941
 O         0.908699         3.792988         0.408102
 C         0.950480         2.884229         1.447085
 C        -0.457330         2.405238         1.633518
 H         1.028924         0.925193        -0.270327
 H        -2.311539         0.179554        -0.340487
 H        -2.859383         1.094678         1.249104
 H        -1.887089         2.323307        -1.287614
 H        -2.217669         3.623730         1.176035
 H        -0.399895         4.793192        -0.873420
 H        -0.511610         5.217982         0.945520
 H         1.718505         2.083701         1.213476
 H         1.433625         3.294529         2.346959
 H        -0.789284         2.137443         2.652500
