19
Iteration:   210charge 0 multiplicity 1
 O         0.304884         0.510399         0.020502
 C        -0.685363         1.116426         0.731507
 C        -2.127033         0.892619         0.654989
 C        -1.609369         1.980590        -0.073751
 C        -1.350205         3.320012         0.768995
 C        -0.375421         4.393082         0.133074
 O         0.964663         3.716681         0.233215
 C         0.963242         3.071206         1.540456
 C        -0.376753         2.367516         1.657519
 H         0.476648        -0.511000         0.235166
 H        -2.581872         0.079066         0.010275
 H        -2.684003         0.989308         1.615687
 H        -1.496656         1.952843        -1.189272
 H        -2.189363         3.689370         1.404397
 H        -0.369695         4.672082        -0.936458
 H        -0.358926         5.400168         0.643853
 H         1.825897         2.332249         1.609160
 H         1.154991         3.660248         2.430777
 H        -0.748130         2.181024         2.643665
