19
Iteration:  2364charge 0 multiplicity 1
 O         0.354200         0.282551         0.319588
 C        -0.695735         1.209754         0.617169
 C        -2.117357         0.972191         0.509903
 C        -1.590624         2.152903        -0.207600
 C        -1.340366         3.272590         0.813997
 C        -0.457366         4.340593         0.211523
 O         0.919295         3.835452         0.315800
 C         1.015168         2.951449         1.461207
 C        -0.326392         2.376533         1.593594
 H         0.243532        -0.279746        -0.407039
 H        -2.445260         0.160719        -0.116430
 H        -2.673578         1.033635         1.535788
 H        -1.554238         2.273880        -1.282929
 H        -2.107413         3.617198         1.381965
 H        -0.740555         4.302861        -0.888257
 H        -0.596431         5.344364         0.655554
 H         1.843522         2.291941         1.491072
 H         1.122394         3.674492         2.333662
 H        -0.700437         2.153985         2.626765
