19
Iteration:   951
 O         0.296739         0.396440         0.303344
 C        -0.680513         1.206571         0.779849
 C        -2.164384         0.921429         0.491791
 C        -1.476137         2.059792        -0.267723
 C        -1.334240         3.220336         0.715315
 C        -0.426569         4.468838         0.407374
 O         0.868265         3.862968         0.147910
 C         1.020499         2.890681         1.374024
 C        -0.338214         2.369036         1.662007
 H         0.102083        -0.521542         0.344759
 H        -2.225507        -0.085374        -0.012077
 H        -2.888970         1.158869         1.297607
 H        -1.378774         2.043504        -1.386270
 H        -2.313866         3.414760         1.258572
 H        -0.724448         5.094589        -0.442791
 H        -0.419548         5.018524         1.337218
 H         1.735946         2.055476         0.991886
 H         1.578730         3.488871         2.125142
 H        -0.699864         2.321352         2.798480
