19
Iteration:  3901charge 0 multiplicity 1
 O         0.282212         0.181105         0.440237
 C        -0.726019         1.147458         0.588568
 C        -2.133362         0.942112         0.460481
 C        -1.532224         2.083434        -0.403561
 C        -1.270866         3.248910         0.709234
 C        -0.315855         4.300678         0.108899
 O         0.878962         4.282642         0.896955
 C         1.060575         2.912035         1.265773
 C        -0.449236         2.289881         1.525308
 H        -0.209323        -0.711666         0.341560
 H        -2.356323         0.148702        -0.298789
 H        -2.943202         1.189267         1.279810
 H        -1.758826         2.324733        -1.428635
 H        -2.144050         3.624932         1.194986
 H         0.042980         3.956892        -0.939069
 H        -0.776819         5.311542        -0.035977
 H         1.513465         2.384133         0.434104
 H         1.881877         2.778451         1.940023
 H        -0.811330         2.266768         2.580708
