19
Iteration:  4643
 O         0.228263         0.124061         0.316139
 C        -0.719813         1.113360         0.589624
 C        -2.181194         0.869906         0.630764
 C        -1.572279         1.942072        -0.324382
 C        -1.320472         3.229745         0.496496
 C        -0.312685         4.378708         0.123342
 O         0.866961         4.340197         0.975158
 C         1.081494         2.965632         1.256907
 C        -0.292896         2.349026         1.445566
 H        -0.084512        -0.636338         0.727902
 H        -2.591017         0.104932         0.101077
 H        -2.841080         1.460189         1.253690
 H        -1.560301         1.904839        -1.402579
 H        -2.205218         3.687872         1.016974
 H         0.134132         4.384253        -0.891164
 H        -0.626429         5.475692         0.205103
 H         1.670717         2.466283         0.430697
 H         1.616902         3.142229         2.277534
 H        -0.613472         2.182029         2.511565
