19
Iteration:  2177
 O         0.328710         0.381461         0.213623
 C        -0.679903         1.182989         0.684292
 C        -2.172444         0.856725         0.496440
 C        -1.596823         2.128074        -0.140641
 C        -1.421267         3.276596         0.790383
 C        -0.393778         4.393497         0.161298
 O         1.026752         3.866578         0.254234
 C         0.999127         2.991535         1.515597
 C        -0.354656         2.318338         1.652937
 H         0.219319        -0.505219         0.442900
 H        -2.262972        -0.147128        -0.052084
 H        -2.859634         0.951093         1.367815
 H        -1.753187         2.255284        -1.257720
 H        -2.250346         3.743476         1.261641
 H        -0.707523         4.638932        -0.859044
 H        -0.336326         5.251661         0.820317
 H         1.700104         2.282027         1.323415
 H         1.351376         3.519127         2.397512
 H        -0.734509         2.048314         2.631988
