19
Iteration:   661
 O         0.238881         0.218687         0.223474
 C        -0.708911         1.133885         0.736926
 C        -2.141060         0.961244         0.550632
 C        -1.469800         2.059372        -0.211666
 C        -1.303303         3.246722         0.789967
 C        -0.441558         4.471381         0.292228
 O         0.922714         4.012087         0.304000
 C         0.997903         2.943140         1.309986
 C        -0.335097         2.341701         1.615095
 H         0.311008        -0.638809         0.719395
 H        -2.430753         0.094235        -0.057476
 H        -2.765794         1.209879         1.421582
 H        -1.256527         1.970925        -1.237448
 H        -2.295618         3.458925         1.322223
 H        -0.782242         4.574202        -0.761415
 H        -0.469442         5.484798         0.840282
 H         1.612477         2.235246         0.824074
 H         1.481220         3.434980         2.219348
 H        -0.557419         2.371759         2.759052
