19
Iteration:  1713charge 0 multiplicity 1
 O         0.327525         0.335107         0.302583
 C        -0.594873         1.265307         0.665389
 C        -2.117637         1.019619         0.509096
 C        -1.517845         2.190482        -0.268409
 C        -1.379485         3.223008         0.782201
 C        -0.441776         4.372466         0.339173
 O         0.904712         3.765753         0.207338
 C         0.985347         2.915231         1.397743
 C        -0.389527         2.339044         1.655876
 H         0.065022        -0.574821         0.459980
 H        -2.328048         0.092633        -0.132847
 H        -2.842942         1.163685         1.405638
 H        -1.508204         2.156388        -1.331797
 H        -2.387173         3.634138         1.240015
 H        -0.852022         4.698202        -0.678347
 H        -0.268937         5.260093         1.035946
 H         1.751417         2.032953         1.331367
 H         1.332159         3.585933         2.300896
 H        -0.592587         2.210637         2.722389
