19
Iteration:  2029
 O         0.260130         0.194541         0.294982
 C        -0.646670         1.214874         0.582586
 C        -2.141292         0.985051         0.566292
 C        -1.588207         2.100572        -0.252630
 C        -1.265546         3.193590         0.750984
 C        -0.445427         4.342680         0.256314
 O         0.961911         3.993768         0.344008
 C         1.039271         3.025988         1.435114
 C        -0.359451         2.301851         1.551800
 H         0.022215        -0.604994         0.895580
 H        -2.463312         0.175471        -0.120285
 H        -2.721552         1.324532         1.407152
 H        -1.814092         2.295292        -1.302210
 H        -2.210283         3.639872         1.280441
 H        -0.721046         4.510664        -0.810164
 H        -0.738082         5.298611         0.748923
 H         2.051308         2.394046         1.365843
 H         1.174158         3.485700         2.406345
 H        -0.626393         2.265690         2.704184
