19
Iteration:  4721
 O         0.249133         0.204597         0.377873
 C        -0.725122         1.132342         0.618642
 C        -2.209615         0.900100         0.471863
 C        -1.619410         2.044728        -0.208671
 C        -1.319312         3.222726         0.673096
 C        -0.259857         4.168511        -0.031109
 O         0.829658         4.330398         0.924080
 C         1.084506         2.991267         1.236878
 C        -0.322163         2.323770         1.553253
 H         0.149607        -0.041977        -0.543701
 H        -2.389713         0.140782        -0.221425
 H        -2.709152         1.005144         1.401185
 H        -1.656713         2.131725        -1.281445
 H        -2.180084         3.836173         1.075784
 H         0.260008         3.737690        -0.942390
 H        -0.654457         5.153927         0.074003
 H         1.783587         2.478952         0.415266
 H         1.685855         3.048445         2.286907
 H        -0.495323         2.332886         2.657865
