19
Iteration:  2130
 O         0.387409         0.296303         0.167663
 C        -0.632231         1.257735         0.622139
 C        -2.159777         0.987880         0.551002
 C        -1.527008         2.119807        -0.224462
 C        -1.413438         3.273204         0.838275
 C        -0.369556         4.391954         0.275806
 O         0.873208         3.732633         0.189304
 C         0.959272         2.990859         1.492534
 C        -0.411908         2.326027         1.661734
 H         0.573959        -0.355383         0.929160
 H        -2.454423         0.134688         0.030989
 H        -2.722487         1.343992         1.402434
 H        -1.382246         2.146976        -1.314815
 H        -2.235434         3.777336         1.286801
 H        -0.643835         4.608116        -0.751935
 H        -0.372180         5.271528         0.902374
 H         1.903087         2.348908         1.629667
 H         1.028708         3.751583         2.263970
 H        -0.599018         2.107912         2.782399
