19
Iteration:   898
 O         0.307378         0.196970         0.376886
 C        -0.573822         1.236629         0.562108
 C        -2.090952         1.026408         0.514235
 C        -1.543195         2.207757        -0.215357
 C        -1.304949         3.259505         0.832660
 C        -0.492720         4.322889         0.289757
 O         0.841882         3.871239         0.303336
 C         1.005913         2.999477         1.327983
 C        -0.315916         2.328884         1.573307
 H        -0.178387        -0.612877         0.434056
 H        -2.334914         0.089132        -0.123129
 H        -2.725573         1.101312         1.491884
 H        -1.736742         2.325868        -1.306078
 H        -2.172844         3.618355         1.301732
 H        -0.884580         4.570104        -0.689724
 H        -0.699520         5.299272         0.867175
 H         1.926769         2.211811         1.133403
 H         1.450358         3.423047         2.254914
 H        -0.628852         2.080123         2.625806
