19
Iteration:  4785charge 0 multiplicity 1
 O         0.325631         0.272118         0.270284
 C        -0.690703         1.175402         0.567398
 C        -2.219057         0.840521         0.584242
 C        -1.624573         1.973282        -0.265404
 C        -1.312400         3.198729         0.642807
 C        -0.313529         4.339429         0.014226
 O         0.995220         4.204611         0.762613
 C         1.018940         2.946108         1.475409
 C        -0.403461         2.366157         1.512462
 H         0.100755        -0.474454        -0.214549
 H        -2.633768        -0.062564         0.188284
 H        -2.910485         1.206220         1.437857
 H        -1.835697         1.968098        -1.309994
 H        -2.159586         3.699873         1.292402
 H        -0.141366         4.412391        -1.115851
 H        -0.670804         5.355428         0.341599
 H         1.773384         2.323433         0.953014
 H         1.190953         3.395462         2.497680
 H        -0.690913         2.255258         2.534421
