19
Iteration:  4974charge 0 multiplicity 1
 O         0.471209         0.366178         0.465603
 C        -0.664076         1.209258         0.643593
 C        -2.137797         0.909170         0.398546
 C        -1.431497         2.167302        -0.266417
 C        -1.442943         3.294344         0.735633
 C        -0.431112         4.387756         0.324949
 O         0.897091         3.726471         0.270253
 C         0.979725         2.911903         1.455674
 C        -0.480655         2.426866         1.616752
 H         0.310876        -0.153943        -0.383200
 H        -2.335439         0.340730        -0.478231
 H        -2.900504         0.860189         1.138509
 H        -1.434569         2.233898        -1.346379
 H        -2.522961         3.594527         1.009442
 H        -0.709437         4.838068        -0.694026
 H        -0.452887         5.068823         1.254207
 H         1.662099         2.092018         1.308116
 H         1.175176         3.456942         2.384327
 H        -0.765531         2.280064         2.627729
