19
Iteration:   622
 O         0.273395         0.112895         0.412907
 C        -0.617504         1.167326         0.531246
 C        -2.116350         0.909133         0.592757
 C        -1.640858         2.145165        -0.304314
 C        -1.351063         3.279627         0.781767
 C        -0.428096         4.516966         0.417797
 O         0.919657         3.946705         0.235099
 C         1.065346         3.076511         1.353180
 C        -0.312380         2.304322         1.506075
 H        -0.308796        -0.699750         0.695760
 H        -2.469542         0.084175        -0.062752
 H        -2.681127         0.946091         1.527652
 H        -1.696118         2.128115        -1.449373
 H        -2.167058         3.493123         1.415514
 H        -0.599343         4.926435        -0.581758
 H        -0.473518         5.303612         1.127533
 H         1.847945         2.300923         1.152568
 H         1.387934         3.495931         2.251788
 H        -0.503767         2.055623         2.498161
