19
Iteration:   687charge 0 multiplicity 1
 O         0.222668         0.254074         0.146562
 C        -0.731739         1.186845         0.752199
 C        -2.139020         0.812856         0.565651
 C        -1.535422         2.128806        -0.154259
 C        -1.368405         3.287845         0.731750
 C        -0.416497         4.410441         0.267271
 O         0.935556         3.904184         0.290312
 C         1.074982         2.984164         1.374826
 C        -0.329212         2.445208         1.694919
 H         0.399604        -0.629968         0.684397
 H        -1.930681         0.041878        -0.137398
 H        -3.017708         0.767875         1.180106
 H        -1.458695         2.232149        -1.300627
 H        -2.255897         3.603895         1.226810
 H        -0.631518         4.784336        -0.777064
 H        -0.454375         5.255609         0.975801
 H         1.711794         2.168331         0.951707
 H         1.685851         3.454643         2.193570
 H        -0.629763         2.492104         2.712709
