19
Iteration:  4943charge 0 multiplicity 1
 O         0.339502         0.310160         0.370731
 C        -0.673291         1.237660         0.745849
 C        -2.040731         0.920899         0.276544
 C        -1.449242         2.230837        -0.232843
 C        -1.363164         3.268326         0.896432
 C        -0.450763         4.307620         0.235097
 O         0.869898         3.705520         0.271419
 C         0.932670         3.071470         1.486420
 C        -0.388674         2.326943         1.632579
 H        -0.063886        -0.492875         0.047153
 H        -2.076949         0.296692        -0.541510
 H        -2.971809         0.848009         0.740291
 H        -0.918579         2.272584        -1.157825
 H        -2.334693         3.696732         1.194729
 H        -0.752105         4.724480        -0.799381
 H        -0.442777         5.246370         0.814231
 H         1.882200         2.530936         1.462407
 H         0.692785         3.866418         2.285413
 H        -0.552303         2.162638         2.697270
