19
Iteration:  3904
 O         0.258022         0.165140         0.429771
 C        -0.713077         1.142668         0.599395
 C        -2.119185         0.952174         0.426512
 C        -1.539529         2.087578        -0.364866
 C        -1.285050         3.245466         0.684513
 C        -0.311832         4.302228         0.107923
 O         0.870096         4.281790         0.881041
 C         1.048842         2.898367         1.283319
 C        -0.402820         2.311428         1.543055
 H        -0.201601        -0.615463         0.379838
 H        -2.349898         0.156354        -0.315932
 H        -2.867511         1.187170         1.199830
 H        -1.715175         2.280714        -1.446294
 H        -2.284650         3.585255         1.225267
 H        -0.030311         3.900486        -0.906582
 H        -0.752839         5.367989         0.019691
 H         1.506689         2.364992         0.406285
 H         1.877382         2.875393         2.009885
 H        -0.747232         2.254298         2.615810
