19
Iteration:  4459
 O         0.321745         0.273429         0.347241
 C        -0.705752         1.169412         0.566432
 C        -2.176937         0.912664         0.611232
 C        -1.679773         2.078610        -0.281784
 C        -1.270016         3.276941         0.583557
 C        -0.189453         4.228355         0.011692
 O         0.784434         4.271802         0.993494
 C         1.059698         2.881175         1.330733
 C        -0.416908         2.309117         1.432885
 H         0.257925        -0.277673        -0.478862
 H        -2.300451        -0.026265         0.057454
 H        -2.658090         0.850091         1.519912
 H        -1.943477         1.930407        -1.361476
 H        -2.045549         3.809103         1.083937
 H         0.262953         3.685350        -0.959101
 H        -0.378224         5.274255        -0.223158
 H         1.608020         2.379501         0.477777
 H         1.476887         2.943706         2.394812
 H        -0.823763         2.224961         2.500650
