19
Iteration:   489charge 0 multiplicity 1
 O         0.369076         0.467624         0.009751
 C        -0.615542         1.228437         0.639390
 C        -2.236575         1.001235         0.710284
 C        -1.605379         2.012852        -0.149162
 C        -1.310698         3.206584         0.804796
 C        -0.404295         4.280109         0.137403
 O         0.925062         3.747103         0.336004
 C         0.954383         3.048775         1.507590
 C        -0.342958         2.367340         1.662377
 H         0.416738        -0.470890         0.511731
 H        -2.595842         0.156176         0.194222
 H        -2.907969         1.351440         1.478784
 H        -1.479776         2.017276        -1.208346
 H        -2.211859         3.585368         1.179894
 H        -0.509221         4.438269        -0.990256
 H        -0.517649         5.333244         0.564523
 H         1.698558         2.310510         1.370345
 H         1.288510         3.670698         2.446737
 H        -0.541002         2.203111         2.651608
