19
Iteration:  1294charge 0 multiplicity 1
 O         0.383464         0.405489         0.180841
 C        -0.667836         1.163976         0.634100
 C        -2.122562         0.960976         0.598508
 C        -1.598481         2.134623        -0.159098
 C        -1.359029         3.311182         0.771114
 C        -0.409352         4.364765         0.204578
 O         0.887002         3.683963         0.256022
 C         1.004682         3.018821         1.488766
 C        -0.398337         2.339257         1.605498
 H         0.572081        -0.410086         0.830543
 H        -2.477925         0.359388        -0.186286
 H        -2.792110         1.037153         1.417950
 H        -1.656686         2.168255        -1.278299
 H        -2.241074         3.698936         1.340423
 H        -0.541425         4.594670        -0.778632
 H        -0.484906         5.235356         0.949668
 H         1.890356         2.346698         1.543858
 H         1.234367         3.635417         2.324788
 H        -0.607358         2.151160         2.605370
