19
Iteration:  3713
 O         0.316199         0.267474         0.250813
 C        -0.726576         1.189686         0.619917
 C        -2.226926         0.861168         0.573101
 C        -1.645482         2.086501        -0.262909
 C        -1.252883         3.273190         0.610715
 C        -0.186698         4.239243        -0.038583
 O         0.793786         4.282484         0.936204
 C         1.051256         2.884713         1.321275
 C        -0.368230         2.318014         1.552942
 H         0.076919        -0.652935         0.685711
 H        -2.462457        -0.065138        -0.045990
 H        -2.957783         1.170267         1.407462
 H        -1.790135         2.187036        -1.366239
 H        -2.210142         3.692051         1.103293
 H         0.179460         3.841812        -0.980456
 H        -0.601892         5.163339        -0.242490
 H         1.646736         2.364034         0.607427
 H         1.694891         2.828814         2.199321
 H        -0.461041         2.233898         2.633628
