19
Iteration:  1647
 O         0.294395         0.187353         0.161562
 C        -0.652507         1.252850         0.495359
 C        -2.119843         1.021764         0.588803
 C        -1.647788         2.139573        -0.216661
 C        -1.342051         3.247485         0.808709
 C        -0.417871         4.263604         0.186911
 O         0.955235         3.887408         0.413607
 C         1.024374         3.031631         1.529561
 C        -0.328994         2.383701         1.571536
 H         0.515472        -0.107959         1.046777
 H        -2.602636         0.147771         0.019770
 H        -2.642070         1.331452         1.595600
 H        -1.825772         2.250092        -1.266674
 H        -2.341360         3.544768         1.349318
 H        -0.493457         4.219061        -0.932287
 H        -0.727206         5.256626         0.508819
 H         1.897920         2.319776         1.243092
 H         1.187833         3.511663         2.570237
 H        -0.531941         2.016754         2.575306
