19
Iteration:  2984
 O         0.226544         0.277380         0.191313
 C        -0.642851         1.248925         0.660603
 C        -2.129681         0.866424         0.502270
 C        -1.535655         2.081886        -0.258957
 C        -1.285625         3.232642         0.714025
 C        -0.369604         4.410556         0.274863
 O         0.946083         3.771179         0.326074
 C         0.947227         3.136016         1.545263
 C        -0.395828         2.305229         1.614429
 H         0.768790        -0.109551         0.802768
 H        -2.193901         0.096499        -0.278321
 H        -2.933925         1.110314         1.171227
 H        -1.645897         2.393397        -1.320486
 H        -2.134324         3.669756         1.285933
 H        -0.691508         4.741988        -0.714063
 H        -0.444544         5.110508         1.107864
 H         2.021959         2.608919         1.559982
 H         0.909840         3.868822         2.367430
 H        -0.863270         2.117481         2.592880
