19
Iteration:  4717charge 0 multiplicity 1
 O         0.221006         0.198294         0.397351
 C        -0.720872         1.157105         0.604252
 C        -2.191503         0.869697         0.484575
 C        -1.621761         2.052975        -0.224153
 C        -1.277052         3.160446         0.688031
 C        -0.268878         4.165549        -0.053073
 O         0.815893         4.337878         0.937610
 C         1.102209         2.991762         1.268449
 C        -0.313396         2.333056         1.539605
 H         0.069934        -0.021425        -0.593926
 H        -2.468439         0.140293        -0.327237
 H        -2.938744         1.092149         1.373107
 H        -1.677439         2.285749        -1.285669
 H        -2.113840         3.846616         1.101074
 H         0.273716         3.802418        -0.954459
 H        -0.691478         5.225178         0.004549
 H         1.710977         2.609128         0.400071
 H         1.675277         3.084423         2.155138
 H        -0.331294         2.370361         2.600134
