19
Iteration:  3847
 O         0.201294         0.166926         0.340577
 C        -0.717840         1.182594         0.586628
 C        -2.177506         0.889392         0.606112
 C        -1.540526         1.958865        -0.318401
 C        -1.248592         3.251604         0.488736
 C        -0.196863         4.309636         0.076951
 O         0.858034         4.333587         1.042277
 C         0.977214         2.908165         1.307186
 C        -0.370101         2.333498         1.477900
 H         0.003887        -0.329912        -0.557334
 H        -2.584747        -0.059265         0.168650
 H        -2.762501         1.246811         1.581744
 H        -1.457149         2.002206        -1.387476
 H        -2.260569         3.752873         0.779256
 H         0.338205         4.206696        -0.931495
 H        -0.761195         5.282869         0.000023
 H         1.393476         2.529394         0.286105
 H         1.620204         2.717050         2.179102
 H        -0.580031         2.422909         2.577949
