19
Iteration:  2121charge 0 multiplicity 1
 O         0.404515         0.310931         0.212751
 C        -0.625022         1.196626         0.574062
 C        -2.148309         0.980599         0.592385
 C        -1.577284         2.194994        -0.234824
 C        -1.336904         3.243862         0.812911
 C        -0.408085         4.333886         0.328849
 O         0.936712         3.712359         0.251063
 C         0.886549         3.061148         1.398714
 C        -0.400196         2.334529         1.614371
 H         0.553696        -0.220402         1.089448
 H        -2.572183         0.140493         0.093761
 H        -2.817351         1.331487         1.419857
 H        -1.520418         2.224267        -1.367567
 H        -2.191472         3.725101         1.176311
 H        -0.771816         4.686245        -0.640722
 H        -0.215651         5.211414         0.957175
 H         1.653718         2.345582         1.432984
 H         1.031725         3.771890         2.227516
 H        -0.683001         2.030936         2.632005
