19
Iteration:  2019charge 0 multiplicity 1
 O         0.253644         0.130967         0.302351
 C        -0.648348         1.187018         0.581469
 C        -2.094800         0.940307         0.582954
 C        -1.657453         2.161176        -0.254264
 C        -1.362257         3.268768         0.663729
 C        -0.455569         4.411572         0.278630
 O         1.001468         3.970924         0.308136
 C         1.052629         3.070558         1.492284
 C        -0.304962         2.290742         1.576392
 H         0.009689        -0.530740         1.012522
 H        -2.399999         0.136383        -0.149538
 H        -2.827605         0.840405         1.357769
 H        -1.775708         2.083569        -1.328164
 H        -2.152737         3.855031         1.235097
 H        -0.568409         4.733532        -0.782422
 H        -0.610123         5.278635         1.023539
 H         1.954004         2.328650         1.234761
 H         1.091674         3.666969         2.386708
 H        -0.536881         1.791645         2.671735
