19
Iteration:   533
 O         0.376500         0.316273         0.156294
 C        -0.677610         1.251938         0.643800
 C        -2.128101         0.769599         0.554051
 C        -1.670600         2.085501        -0.116442
 C        -1.351208         3.414597         0.819219
 C        -0.290590         4.447423         0.271326
 O         0.896911         3.725826         0.207864
 C         0.926751         2.951162         1.429839
 C        -0.387730         2.431578         1.607462
 H         0.566480        -0.256010         1.025432
 H        -2.265712        -0.082630        -0.100017
 H        -2.599167         0.741925         1.490684
 H        -1.881330         2.213886        -1.152404
 H        -2.027409         3.880600         1.476236
 H        -0.501950         4.839669        -0.765736
 H        -0.337758         5.364414         0.913204
 H         1.729034         2.289214         1.411611
 H         1.108566         3.619270         2.252718
 H        -0.606472         2.264762         2.587806
