19
Iteration:  3898charge 0 multiplicity 1
 O         0.299651         0.189442         0.448993
 C        -0.726419         1.154657         0.579438
 C        -2.168852         0.930933         0.486210
 C        -1.526227         2.087180        -0.416733
 C        -1.255744         3.248364         0.710903
 C        -0.315796         4.295659         0.100259
 O         0.886392         4.285577         0.917948
 C         1.062965         2.922127         1.243837
 C        -0.477986         2.276716         1.511880
 H        -0.142037        -0.706041         0.312388
 H        -2.393868         0.141212        -0.205885
 H        -2.909033         1.132059         1.254454
 H        -1.787771         2.325435        -1.448577
 H        -2.073505         3.712439         1.187668
 H         0.050548         4.039734        -0.899903
 H        -0.754987         5.234131        -0.045866
 H         1.487754         2.366535         0.383474
 H         1.875162         2.719597         1.994276
 H        -0.819161         2.235466         2.528110
