19
Iteration:   277charge 0 multiplicity 1
 O         0.304557         0.237992         0.147654
 C        -0.704697         1.111014         0.647098
 C        -2.184851         0.808212         0.596437
 C        -1.695251         2.059302        -0.110207
 C        -1.262499         3.272511         0.791406
 C        -0.322853         4.449352         0.177135
 O         1.010544         3.998414         0.295716
 C         0.986449         3.107332         1.448101
 C        -0.401990         2.316871         1.580247
 H         0.254208        -0.577218         0.625138
 H        -2.551943         0.020888        -0.053354
 H        -2.751770         0.900583         1.612491
 H        -1.617912         2.070025        -1.144800
 H        -2.093516         3.709339         1.415383
 H        -0.692162         4.816395        -0.835620
 H        -0.517038         5.271003         0.915253
 H         1.929222         2.440037         1.348188
 H         1.292562         3.694200         2.349921
 H        -0.650415         2.152923         2.591385
