19
Iteration:    28charge 0 multiplicity 1
 O         0.223333         0.230646         0.164072
 C        -0.702686         1.125709         0.756447
 C        -2.120428         0.709489         0.567514
 C        -1.478106         2.020806        -0.103984
 C        -1.303885         3.352134         0.749503
 C        -0.359854         4.506559         0.262373
 O         0.942464         4.018500         0.287341
 C         1.006071         2.969300         1.299998
 C        -0.415629         2.429945         1.665274
 H         0.293108        -0.512048         0.734441
 H        -2.397695        -0.044716        -0.202070
 H        -2.982098         0.910476         1.259322
 H        -1.679841         1.931874        -1.191603
 H        -2.215890         3.767565         1.232271
 H        -0.667292         4.963402        -0.731510
 H        -0.504704         5.464149         0.793144
 H         1.792570         2.197038         0.976637
 H         1.496036         3.298034         2.259793
 H        -0.679393         2.447134         2.768619
