19
Iteration:   660
 O         0.243591         0.221237         0.228167
 C        -0.713080         1.128987         0.734635
 C        -2.139861         0.971105         0.557326
 C        -1.470340         2.069358        -0.222616
 C        -1.303870         3.236855         0.788462
 C        -0.446209         4.469325         0.294063
 O         0.924981         4.011989         0.303883
 C         1.001155         2.948325         1.314071
 C        -0.334756         2.335332         1.608107
 H         0.313895        -0.678524         0.732623
 H        -2.425600         0.088771        -0.027805
 H        -2.812184         1.206353         1.439286
 H        -1.259011         1.994656        -1.240334
 H        -2.282827         3.444315         1.340802
 H        -0.781898         4.570997        -0.740213
 H        -0.469608         5.477843         0.835780
 H         1.618803         2.220838         0.799598
 H         1.457674         3.432268         2.208194
 H        -0.561901         2.377751         2.737730
