19
Iteration:   669charge 0 multiplicity 1
 O         0.200377         0.223627         0.167739
 C        -0.636655         1.165781         0.751869
 C        -2.157053         0.858818         0.493654
 C        -1.447359         2.002155        -0.126934
 C        -1.299991         3.334673         0.788504
 C        -0.422355         4.467159         0.252585
 O         0.889852         3.996776         0.308853
 C         1.017992         2.943426         1.292129
 C        -0.366529         2.405556         1.700354
 H         0.218780        -0.546184         0.880360
 H        -2.500562         0.096885        -0.208906
 H        -2.771137         1.196326         1.415387
 H        -1.356586         1.945834        -1.188837
 H        -2.290672         3.722321         1.109862
 H        -0.620248         4.760915        -0.758242
 H        -0.632331         5.351175         0.889119
 H         1.777790         2.127705         0.964114
 H         1.536979         3.268744         2.160935
 H        -0.453260         2.197276         2.771353
