19
Iteration:  1693
 O         0.313159         0.328959         0.177507
 C        -0.698866         1.158573         0.738979
 C        -2.194474         0.847394         0.557320
 C        -1.493726         2.010857        -0.210362
 C        -1.302854         3.336721         0.708333
 C        -0.340779         4.419211         0.331666
 O         0.908254         3.829920         0.262911
 C         1.015673         3.027199         1.402518
 C        -0.426942         2.382002         1.659122
 H        -0.008382        -0.513491         0.239172
 H        -2.507760         0.023338        -0.173176
 H        -2.974432         1.217125         1.413225
 H        -1.325024         2.248287        -1.233909
 H        -2.286813         3.709836         1.173013
 H        -0.497664         5.009528        -0.661804
 H        -0.348691         5.162037         1.135503
 H         1.680937         2.125287         1.287257
 H         1.331400         3.696846         2.305531
 H        -0.687841         2.366487         2.702520
