19
Iteration:   973
 O         0.336993         0.247632         0.213981
 C        -0.604696         1.219472         0.666541
 C        -2.121960         0.995504         0.542373
 C        -1.418148         2.194943        -0.196978
 C        -1.368250         3.265883         0.821773
 C        -0.456964         4.375178         0.298502
 O         0.805051         3.819078         0.248887
 C         0.995744         2.956943         1.363968
 C        -0.378443         2.341387         1.651318
 H         0.075870        -0.526752         0.869935
 H        -2.453955         0.228424        -0.192005
 H        -2.796294         1.396210         1.354369
 H        -1.374842         2.111757        -1.323820
 H        -2.297632         3.681808         1.318778
 H        -0.712723         4.485174        -0.764600
 H        -0.604665         5.292352         0.863106
 H         1.824203         2.166014         1.082982
 H         1.404215         3.503952         2.255893
 H        -0.492109         2.175169         2.843945
