19
Iteration:  1133
 O         0.342337         0.354844         0.180480
 C        -0.590002         1.281783         0.640398
 C        -2.127856         0.988940         0.596536
 C        -1.408820         2.150381        -0.228836
 C        -1.408114         3.284242         0.828289
 C        -0.470057         4.382320         0.282955
 O         0.845520         3.672835         0.183161
 C         0.974667         2.945008         1.457537
 C        -0.382839         2.344651         1.688813
 H         0.076212        -0.578323         0.605934
 H        -2.336393         0.132287         0.027232
 H        -2.786212         1.315515         1.382865
 H        -1.437262         2.332750        -1.355151
 H        -2.358085         3.570523         1.257068
 H        -0.761892         4.724541        -0.770389
 H        -0.427810         5.153957         1.062533
 H         1.773092         2.294979         1.316846
 H         1.371592         3.643616         2.192584
 H        -0.549789         2.209989         2.755699
