19
Iteration:  4036
 O         0.233739         0.258436         0.301443
 C        -0.744898         1.160960         0.730909
 C        -2.151383         0.912532         0.427692
 C        -1.503550         2.073766        -0.246290
 C        -1.244332         3.280243         0.646584
 C        -0.225726         4.167347         0.011763
 O         0.751659         4.281824         0.891518
 C         1.043577         2.875446         1.311811
 C        -0.353551         2.347717         1.601257
 H        -0.218872        -0.609959         0.283104
 H        -2.232264         0.160840        -0.298821
 H        -3.001641         1.024809         1.021507
 H        -1.307148         2.282157        -1.300668
 H        -2.080099         3.819065         1.090982
 H         0.031525         3.982290        -1.004135
 H        -0.858803         5.097633        -0.259175
 H         1.549115         2.548222         0.437794
 H         1.818573         2.879620         1.991328
 H        -0.701574         2.143598         2.667205
