19
Iteration:  4093
 O         0.238602         0.113285         0.229287
 C        -0.639812         1.124894         0.527547
 C        -2.163589         0.947026         0.680032
 C        -1.659275         1.979671        -0.294019
 C        -1.231129         3.211542         0.446160
 C        -0.205423         4.380457        -0.068196
 O         0.829734         4.295822         1.007417
 C         1.041272         2.967638         1.495805
 C        -0.358680         2.341859         1.426296
 H        -0.340700        -0.620634         0.481525
 H        -2.575338         0.043826         0.292522
 H        -2.630548         1.271075         1.532858
 H        -1.912597         2.210812        -1.316674
 H        -2.156861         3.585451         0.967796
 H         0.159844         4.258322        -1.039961
 H        -0.777009         5.278969         0.290395
 H         1.874402         2.531247         0.942484
 H         1.303112         3.105745         2.549448
 H        -0.823806         2.135704         2.452910
