19
Iteration:  1514
 O         0.263587         0.388078         0.232748
 C        -0.702191         1.225834         0.753637
 C        -2.089009         0.814473         0.376677
 C        -1.506573         2.096545        -0.133658
 C        -1.332536         3.327573         0.837092
 C        -0.399684         4.414817         0.298243
 O         0.952376         3.775815         0.118733
 C         0.976745         2.942450         1.393336
 C        -0.412760         2.426354         1.799496
 H         0.089568        -0.481505         0.377137
 H        -2.264585         0.090687        -0.380182
 H        -2.851825         0.752841         1.180966
 H        -1.405263         2.135592        -1.248481
 H        -2.311926         3.638818         1.351318
 H        -0.636770         4.898231        -0.602997
 H        -0.318138         5.157640         1.099770
 H         1.740706         2.158524         1.115537
 H         1.272904         3.531643         2.195192
 H        -0.565957         2.295669         2.875371
