19
Iteration:  3519charge 0 multiplicity 1
 O         0.160619        -0.022959         0.272929
 C        -0.741753         1.069504         0.666782
 C        -2.169560         0.928270         0.659608
 C        -1.532580         1.954599        -0.295678
 C        -1.286661         3.177926         0.465907
 C        -0.339607         4.418377         0.153352
 O         0.972046         4.340295         0.752126
 C         1.028572         3.090410         1.434778
 C        -0.354572         2.336372         1.470272
 H         0.847763         0.329757        -0.259270
 H        -2.718415         0.128062         0.156896
 H        -2.804183         1.411910         1.453128
 H        -1.411177         1.786187        -1.333551
 H        -2.117351         3.578039         0.952906
 H        -0.043114         4.586153        -0.897723
 H        -0.913449         5.300972         0.675888
 H         1.659568         2.482085         0.685389
 H         1.476235         3.242056         2.499271
 H        -0.737254         2.145464         2.511839
