19
Iteration:  1497charge 0 multiplicity 1
 O         0.365932         0.292669         0.207539
 C        -0.705118         1.145299         0.780843
 C        -2.145262         0.936529         0.522495
 C        -1.469764         2.133100        -0.181419
 C        -1.358263         3.308698         0.760212
 C        -0.338954         4.447841         0.365126
 O         0.827118         3.785247         0.244430
 C         0.998524         2.948388         1.313481
 C        -0.416572         2.410163         1.624817
 H         0.340349        -0.534389         0.583387
 H        -2.275919         0.081376        -0.193665
 H        -3.091265         1.016771         1.210839
 H        -1.321120         2.188883        -1.250864
 H        -2.210302         3.809792         1.140306
 H        -0.702217         4.866465        -0.686376
 H        -0.484778         5.196600         1.193735
 H         1.699043         2.132095         1.134408
 H         1.553217         3.541705         2.202724
 H        -0.759228         2.266812         2.693571
