19
Iteration:  4268charge 0 multiplicity 1
 O         0.247207         0.088778         0.489739
 C        -0.693942         1.123949         0.576820
 C        -2.119209         0.959554         0.331999
 C        -1.559891         2.194753        -0.328631
 C        -1.312893         3.211621         0.731263
 C        -0.327230         4.237737         0.063082
 O         0.835485         4.347661         0.874788
 C         1.077080         2.932364         1.309323
 C        -0.319587         2.298772         1.518723
 H        -0.203391        -0.635957         0.103290
 H        -2.489565         0.107867        -0.213989
 H        -2.792307         1.186801         1.115312
 H        -1.976290         2.353328        -1.332277
 H        -2.030390         3.663437         1.354477
 H        -0.140709         3.955039        -0.970172
 H        -0.757903         5.298554        -0.156694
 H         1.730473         2.354913         0.606510
 H         1.694227         2.961766         2.171959
 H        -0.676340         2.053470         2.577513
