19
Iteration:  2884charge 0 multiplicity 1
 O         0.183149         0.163715         0.215463
 C        -0.664614         1.185507         0.661138
 C        -2.034871         0.893487         0.549660
 C        -1.485376         2.169785        -0.237325
 C        -1.339718         3.298840         0.747212
 C        -0.390936         4.434460         0.249861
 O         0.899946         3.794603         0.317592
 C         0.958099         3.085499         1.503755
 C        -0.401532         2.321666         1.603880
 H         1.089850         0.280090         0.312185
 H        -2.358794         0.033590         0.033253
 H        -2.721257         1.117440         1.322779
 H        -1.255375         2.065468        -1.303459
 H        -2.250060         3.700554         1.235789
 H        -0.605850         4.699005        -0.752003
 H        -0.606580         5.338972         0.843113
 H         1.933529         2.554483         1.427931
 H         0.949253         3.848063         2.239783
 H        -0.592672         2.121152         2.661064
