19
Iteration:  4246charge 0 multiplicity 1
 O         0.229168         0.070880         0.424746
 C        -0.693148         1.176850         0.544690
 C        -2.191073         0.898127         0.419500
 C        -1.546873         2.147766        -0.275202
 C        -1.266375         3.280697         0.672609
 C        -0.357509         4.310413         0.070832
 O         0.865296         4.250548         0.837062
 C         1.036356         3.009208         1.351345
 C        -0.276304         2.286681         1.548096
 H        -0.274947        -0.664010        -0.078979
 H        -2.393095         0.116812        -0.316685
 H        -2.960643         0.862647         1.119387
 H        -1.468977         2.107826        -1.376506
 H        -2.081780         3.763851         1.146591
 H        -0.094025         4.149911        -1.009118
 H        -0.859019         5.356157        -0.021882
 H         1.887096         2.419296         0.892377
 H         1.434602         3.095799         2.342264
 H        -0.550524         2.117298         2.648348
