19
Iteration:  2122
 O         0.405867         0.304956         0.208536
 C        -0.621314         1.204490         0.577349
 C        -2.151877         0.981411         0.590714
 C        -1.572622         2.193555        -0.235061
 C        -1.350922         3.237628         0.818924
 C        -0.403155         4.342573         0.324069
 O         0.929878         3.714270         0.246105
 C         0.894594         3.048134         1.401196
 C        -0.400906         2.334702         1.625323
 H         0.550588        -0.211207         1.034717
 H        -2.568598         0.110249         0.074111
 H        -2.813930         1.366138         1.420871
 H        -1.476749         2.188308        -1.367613
 H        -2.198589         3.781485         1.188506
 H        -0.775175         4.661281        -0.662565
 H        -0.208639         5.244914         0.956728
 H         1.645620         2.379863         1.485111
 H         1.036417         3.780805         2.232810
 H        -0.673027         2.047226         2.612524
