19
Iteration:  2158charge 0 multiplicity 1
 O         0.262438         0.356673         0.119394
 C        -0.720099         1.262191         0.741500
 C        -2.080043         0.831182         0.492973
 C        -1.542442         2.072574        -0.170295
 C        -1.311255         3.262655         0.823057
 C        -0.369705         4.331797         0.246634
 O         0.931824         3.777965         0.281203
 C         1.011321         3.050678         1.423350
 C        -0.427632         2.436364         1.719026
 H         0.153230        -0.564456         0.418173
 H        -2.204584         0.073073        -0.342248
 H        -2.938527         0.893282         1.184313
 H        -1.251634         2.103149        -1.208840
 H        -2.188824         3.909301         1.268183
 H        -0.617409         4.470874        -0.834589
 H        -0.601856         5.304403         0.831958
 H         1.745768         2.221972         1.401410
 H         1.230490         3.775414         2.265152
 H        -0.545121         2.462723         2.779346
