19
Iteration:  2568
 O         0.275831         0.285317         0.349846
 C        -0.735428         1.169233         0.571326
 C        -2.124943         0.786078         0.562814
 C        -1.656573         2.135268        -0.162111
 C        -1.327313         3.317460         0.755706
 C        -0.322527         4.412295         0.211378
 O         0.982876         3.857730         0.282969
 C         0.921323         3.004950         1.487319
 C        -0.361118         2.378423         1.533483
 H         1.058959         0.699508        -0.158552
 H        -2.130572         0.039987        -0.190499
 H        -2.561065         0.680323         1.502760
 H        -2.150073         1.997636        -1.165015
 H        -1.931709         3.718144         1.471816
 H        -0.550443         4.564943        -0.859005
 H        -0.515694         5.339415         0.823485
 H         1.904649         2.336213         1.378292
 H         1.164619         3.493529         2.411143
 H        -0.543412         2.167702         2.631739
