19
Iteration:  1180
 O         0.305105         0.196486         0.287739
 C        -0.722973         1.091955         0.670644
 C        -2.167153         0.799765         0.493727
 C        -1.608334         2.125813        -0.157753
 C        -1.359569         3.331924         0.766678
 C        -0.407173         4.506949         0.336237
 O         1.015323         4.022306         0.220526
 C         1.024285         2.961441         1.358094
 C        -0.393830         2.336296         1.588363
 H         0.320020        -0.562401         0.950914
 H        -2.251148         0.055858        -0.337956
 H        -2.783988         0.843899         1.429735
 H        -1.667489         2.176043        -1.209484
 H        -2.202154         3.899745         1.357109
 H        -0.580785         4.763084        -0.761443
 H        -0.374158         5.356287         1.109688
 H         1.819986         2.218012         1.184548
 H         1.386278         3.417928         2.305478
 H        -0.565358         2.257227         2.649778
