19
Iteration:  1302charge 0 multiplicity 1
 O         0.451346         0.422781         0.139666
 C        -0.683583         1.143435         0.670705
 C        -2.171120         1.000284         0.571958
 C        -1.517144         2.144435        -0.178750
 C        -1.337886         3.329922         0.825385
 C        -0.387567         4.334318         0.199271
 O         0.831873         3.666028         0.255324
 C         0.938850         3.022345         1.447608
 C        -0.394777         2.324651         1.722182
 H         0.635684        -0.435174         0.658228
 H        -2.688914         0.333574        -0.100241
 H        -2.699267         1.226678         1.526337
 H        -1.533421         2.125458        -1.298088
 H        -2.373456         3.590003         1.265897
 H        -0.488366         4.520588        -0.895729
 H        -0.230810         5.373694         0.616331
 H         1.681734         2.208978         1.259529
 H         1.159907         3.724437         2.301213
 H        -0.742659         2.089934         2.731499
