19
Iteration:   329charge 0 multiplicity 1
 O         0.323732         0.201776         0.327387
 C        -0.628376         1.214707         0.659283
 C        -2.137545         0.950289         0.468946
 C        -1.481668         2.116179        -0.252431
 C        -1.362763         3.332805         0.847104
 C        -0.456379         4.456490         0.419562
 O         0.865093         3.846051         0.173034
 C         1.018753         2.947535         1.312174
 C        -0.354353         2.341420         1.594635
 H         0.321409        -0.516435         1.075620
 H        -2.281788         0.025750        -0.040485
 H        -2.894542         1.199764         1.234999
 H        -1.677085         2.333456        -1.280152
 H        -2.355836         3.560532         1.404116
 H        -0.852930         4.751172        -0.514971
 H        -0.511782         5.361618         1.080977
 H         1.769227         2.169230         1.038619
 H         1.320456         3.604641         2.184354
 H        -0.416438         2.203576         2.699882
