19
Iteration:  3674
 O         0.164850         0.025760         0.302174
 C        -0.692331         1.165273         0.562356
 C        -2.174791         0.922719         0.571022
 C        -1.598036         2.015820        -0.329655
 C        -1.322039         3.176330         0.649744
 C        -0.291540         4.271428         0.022700
 O         0.844168         4.390420         0.867937
 C         1.099928         3.014202         1.384689
 C        -0.253382         2.348891         1.585348
 H        -0.213987        -0.389632        -0.480762
 H        -2.385377         0.006348         0.076322
 H        -2.843338         1.292368         1.324210
 H        -1.522638         2.191092        -1.407331
 H        -2.163842         3.780815         0.963044
 H         0.122902         3.906157        -0.988957
 H        -0.614732         5.446444         0.100012
 H         2.030452         2.461148         0.787152
 H         1.426077         3.315462         2.426209
 H        -0.588079         2.135929         2.639000
