19
Iteration:  3563charge 0 multiplicity 1
 O         0.185001         0.068040         0.451835
 C        -0.689235         1.139427         0.630748
 C        -2.136814         0.965231         0.439751
 C        -1.573512         2.066168        -0.273525
 C        -1.320668         3.243141         0.678660
 C        -0.340962         4.248644         0.052501
 O         0.885902         4.339061         0.840780
 C         1.046867         2.943647         1.207449
 C        -0.349157         2.282875         1.553267
 H         0.981047         0.440730         0.030035
 H        -2.489207         0.073926        -0.102423
 H        -2.638849         1.112317         1.395063
 H        -1.542748         2.282776        -1.325951
 H        -2.163610         3.792620         0.981115
 H        -0.138882         3.983392        -1.018006
 H        -0.680577         5.330545         0.178381
 H         1.479911         2.354452         0.417163
 H         1.538139         2.976705         2.152859
 H        -0.515636         2.247005         2.661179
