19
Iteration:  2949
 O         0.414035         0.363721         0.246356
 C        -0.660740         1.198718         0.624900
 C        -2.116214         0.923866         0.592070
 C        -1.513343         2.102587        -0.214522
 C        -1.342922         3.289834         0.673684
 C        -0.422814         4.385208         0.204413
 O         0.940933         3.865006         0.405494
 C         0.992313         2.945573         1.439087
 C        -0.504164         2.307960         1.659887
 H         0.007304        -0.487208         0.140579
 H        -2.518940         0.104695         0.005192
 H        -2.891565         1.220251         1.262804
 H        -1.707310         2.209017        -1.313978
 H        -2.225456         3.658769         1.042485
 H        -0.349367         4.715579        -0.776959
 H        -0.543705         5.311584         0.775789
 H         1.671233         2.007148         1.139307
 H         1.318861         3.328181         2.401385
 H        -1.004856         2.204696         2.633818
