19
Iteration:  3733
 O         0.279410         0.340593         0.214805
 C        -0.721637         1.174574         0.599486
 C        -2.213067         0.919849         0.624742
 C        -1.653905         1.971791        -0.317072
 C        -1.331352         3.231276         0.584508
 C        -0.236834         4.194047         0.062613
 O         0.930644         4.239337         0.970612
 C         1.052673         2.902177         1.317167
 C        -0.415112         2.373971         1.484557
 H         0.739111         0.025160         1.024094
 H        -2.608815         0.040613         0.087698
 H        -2.826070         1.185224         1.496055
 H        -1.651301         1.735913        -1.411326
 H        -2.127488         3.823027         0.996612
 H         0.170310         3.861925        -0.947499
 H        -0.579728         5.180814        -0.149245
 H         1.612885         2.390921         0.415752
 H         1.600718         2.655422         2.280991
 H        -0.852883         2.399255         2.477693
