19
Iteration:  2239charge 0 multiplicity 1
 O         0.227484         0.261185         0.156746
 C        -0.676456         1.171839         0.691809
 C        -2.141712         0.854624         0.537369
 C        -1.518541         2.036967        -0.165795
 C        -1.315380         3.305881         0.735338
 C        -0.346977         4.373266         0.265180
 O         0.902272         3.893479         0.297672
 C         1.026615         3.099675         1.500515
 C        -0.368320         2.362989         1.572621
 H         0.055082        -0.581288         0.488640
 H        -2.243267        -0.049919         0.019884
 H        -2.743727         1.035960         1.384694
 H        -1.421394         2.141201        -1.298429
 H        -2.209730         3.756763         1.262555
 H        -0.561050         4.844850        -0.694122
 H        -0.588964         5.206559         1.029771
 H         1.844154         2.312473         1.302193
 H         1.207536         3.697108         2.435779
 H        -0.713878         2.470997         2.636362
