19
Iteration:  3081
 O         0.443171         0.408275         0.324205
 C        -0.728856         1.140353         0.571424
 C        -2.281778         0.916328         0.573540
 C        -1.504953         2.036108        -0.241950
 C        -1.313280         3.292255         0.636773
 C        -0.387392         4.443687         0.273360
 O         0.974970         3.848615         0.341200
 C         0.955976         2.971736         1.520913
 C        -0.471553         2.289712         1.608327
 H         0.467998        -0.005592        -0.481388
 H        -2.586957         0.140362        -0.122437
 H        -2.902423         1.235616         1.400215
 H        -1.431055         2.212580        -1.325281
 H        -2.212152         3.602770         1.008819
 H        -0.443015         4.838897        -0.680321
 H        -0.425320         5.146702         1.126012
 H         1.864759         2.193993         1.442128
 H         1.009410         3.320518         2.534891
 H        -0.634143         1.897286         2.635094
