19
Iteration:  4300
 O         0.248525         0.219926         0.368372
 C        -0.738747         1.110832         0.662356
 C        -2.210190         0.835083         0.513981
 C        -1.431423         1.993530        -0.329535
 C        -1.329552         3.317579         0.543178
 C        -0.236608         4.437588         0.063548
 O         0.816958         4.295803         1.029602
 C         1.082658         2.842575         1.202778
 C        -0.382351         2.322880         1.479067
 H        -0.117720        -0.756964         0.303838
 H        -2.556495        -0.067930        -0.048943
 H        -2.886231         1.326966         1.265455
 H        -1.732809         1.764351        -1.361876
 H        -2.149731         3.755622         1.114393
 H         0.239325         4.200296        -0.871870
 H        -0.747991         5.465327         0.247081
 H         1.505218         2.426113         0.281142
 H         1.689086         2.710586         2.029821
 H        -0.724410         2.392169         2.566825
