19
Iteration:  3436
 O         0.312257         0.309022         0.298167
 C        -0.734844         1.188847         0.716804
 C        -2.236286         0.882735         0.488116
 C        -1.607857         2.043620        -0.260366
 C        -1.288221         3.221190         0.670753
 C        -0.330003         4.298176         0.174917
 O         0.985259         4.098490         0.556897
 C         1.006868         2.915204         1.405796
 C        -0.474995         2.359258         1.583099
 H         1.080889         0.929841         0.034343
 H        -2.114261        -0.017657        -0.147855
 H        -2.913953         0.899983         1.342854
 H        -1.547479         1.907485        -1.353592
 H        -2.226180         3.805041         1.074106
 H        -0.231220         4.206953        -0.942222
 H        -0.683589         5.284688         0.341471
 H         1.750121         2.190114         1.129212
 H         1.382203         3.005181         2.353533
 H        -0.667106         2.139201         2.640888
