19
Iteration:    45
 O         0.245200         0.248424         0.259052
 C        -0.673637         1.211303         0.724170
 C        -2.147451         0.944046         0.604466
 C        -1.594211         2.023512        -0.262225
 C        -1.339872         3.189410         0.717569
 C        -0.456033         4.394821         0.278271
 O         0.945317         4.022910         0.364913
 C         1.062294         2.969012         1.300845
 C        -0.301915         2.393051         1.577899
 H         0.228244        -0.468373         0.820072
 H        -2.234408        -0.015678         0.143214
 H        -2.851422         1.025700         1.434833
 H        -1.469242         2.101644        -1.324870
 H        -2.242157         3.527721         1.240576
 H        -0.624161         4.753595        -0.754267
 H        -0.667966         5.208531         1.018939
 H         1.693120         2.256491         0.796678
 H         1.581990         3.317410         2.194075
 H        -0.442273         2.230045         2.642862
