19
Iteration:  3693charge 0 multiplicity 1
 O         0.207132         0.117886         0.279113
 C        -0.674613         1.108608         0.630662
 C        -2.140782         0.922895         0.505899
 C        -1.573405         2.048266        -0.220642
 C        -1.216826         3.306966         0.655610
 C        -0.293220         4.196377        -0.027391
 O         0.860862         4.348068         0.912164
 C         1.017028         3.031857         1.370737
 C        -0.386762         2.337850         1.498202
 H        -0.315610        -0.662144        -0.095753
 H        -2.394309         0.133548        -0.271129
 H        -2.696808         0.963555         1.519450
 H        -1.748246         2.099483        -1.310100
 H        -2.051170         3.780716         1.341380
 H         0.013903         3.735691        -0.961375
 H        -0.633548         5.215521        -0.145229
 H         1.529343         2.375905         0.710865
 H         1.730329         3.075806         2.142151
 H        -0.688988         2.183306         2.567430
