19
Iteration:  3254
 O         0.288502         0.149760         0.254432
 C        -0.556363         1.202677         0.600609
 C        -2.086041         0.932648         0.445969
 C        -1.383047         2.178964        -0.277142
 C        -1.398647         3.291389         0.773751
 C        -0.435572         4.309199         0.209730
 O         0.902589         3.855749         0.372944
 C         0.939573         3.085592         1.571454
 C        -0.420010         2.375091         1.692835
 H        -0.156172        -0.406141        -0.489196
 H        -2.487059         0.056774        -0.061580
 H        -2.804864         1.277741         1.207788
 H        -1.473967         2.359030        -1.334128
 H        -2.332273         3.650471         1.353163
 H        -0.678030         4.472338        -0.833907
 H        -0.488079         5.353130         0.578703
 H         1.800536         2.554047         1.607391
 H         0.968534         3.779615         2.520481
 H        -0.705359         2.075778         2.701116
