19
Iteration:  4458
 O         0.326260         0.276792         0.343821
 C        -0.704573         1.162154         0.565709
 C        -2.182087         0.915296         0.624427
 C        -1.676009         2.082195        -0.286654
 C        -1.279829         3.265903         0.575004
 C        -0.189587         4.232179         0.017271
 O         0.789562         4.275131         0.999015
 C         1.053557         2.878865         1.325293
 C        -0.413483         2.307510         1.426913
 H         0.254210        -0.263664        -0.434274
 H        -2.288150        -0.034174         0.065744
 H        -2.656182         0.862484         1.513915
 H        -1.963953         1.960743        -1.368296
 H        -2.026212         3.792471         1.081173
 H         0.243698         3.686394        -0.958679
 H        -0.346698         5.300479        -0.255857
 H         1.613183         2.343073         0.500628
 H         1.460127         2.938460         2.398886
 H        -0.833488         2.246004         2.516210
