19
Iteration:  3521
 O         0.150902        -0.010698         0.273869
 C        -0.718294         1.051696         0.677439
 C        -2.172635         0.931749         0.649184
 C        -1.535248         1.952981        -0.296702
 C        -1.283807         3.183295         0.464529
 C        -0.335676         4.417629         0.147105
 O         0.978383         4.343777         0.762473
 C         1.015844         3.075460         1.422217
 C        -0.363753         2.350993         1.471359
 H         0.831432         0.284870        -0.264862
 H        -2.710005         0.091666         0.198074
 H        -2.732131         1.388979         1.447537
 H        -1.448911         1.778908        -1.366236
 H        -2.191685         3.564895         0.954770
 H        -0.103998         4.595512        -0.884648
 H        -0.944934         5.297277         0.668999
 H         1.726539         2.470068         0.701236
 H         1.524227         3.235767         2.530479
 H        -0.689140         2.171730         2.517277
