19
Iteration:  1416charge 0 multiplicity 1
 O         0.141974         0.189484         0.104335
 C        -0.690406         1.137556         0.767416
 C        -2.130730         0.923472         0.582197
 C        -1.435196         2.045745        -0.207833
 C        -1.316677         3.217802         0.733614
 C        -0.415286         4.358370         0.232706
 O         0.965550         4.026721         0.384497
 C         1.032530         3.055975         1.389613
 C        -0.320033         2.402378         1.644674
 H        -0.009977        -0.624086         0.486085
 H        -2.382799        -0.065050         0.128858
 H        -2.777747         1.286990         1.373831
 H        -1.443574         2.021680        -1.286167
 H        -2.238738         3.697641         1.109093
 H        -0.699966         4.610417        -0.770637
 H        -0.696031         5.255308         0.890751
 H         1.857724         2.358033         1.083765
 H         1.205028         3.692295         2.303320
 H        -0.610460         2.386582         2.638428
