19
Iteration:  1417
 O         0.142752         0.183586         0.100615
 C        -0.694926         1.131680         0.766890
 C        -2.131053         0.911905         0.579313
 C        -1.430317         2.051976        -0.207050
 C        -1.314345         3.227529         0.736234
 C        -0.399780         4.358719         0.232730
 O         0.961055         4.033265         0.384140
 C         1.033405         3.061494         1.388790
 C        -0.324655         2.393068         1.647618
 H        -0.017464        -0.641790         0.535374
 H        -2.369212        -0.084844         0.130826
 H        -2.817827         1.292508         1.393630
 H        -1.465800         2.024922        -1.297036
 H        -2.203275         3.717833         1.109073
 H        -0.750904         4.629870        -0.795567
 H        -0.689701         5.242863         0.894236
 H         1.841500         2.367229         1.053072
 H         1.174975         3.700869         2.302357
 H        -0.608216         2.418806         2.670599
