19
Iteration:  1223charge 0 multiplicity 1
 O         0.256669         0.202577         0.203819
 C        -0.653480         1.161906         0.664470
 C        -2.150583         1.066509         0.611525
 C        -1.473752         2.058442        -0.249944
 C        -1.338661         3.187959         0.795081
 C        -0.493937         4.373349         0.228068
 O         0.915780         4.057170         0.354666
 C         1.076599         3.032478         1.377752
 C        -0.332854         2.266197         1.622328
 H         0.024789        -0.731270         0.668730
 H        -2.818550         0.285689         0.125959
 H        -2.615202         1.648186         1.458277
 H        -1.354182         2.013408        -1.292130
 H        -2.402803         3.352696         1.184045
 H        -0.648243         4.378686        -0.966046
 H        -0.542979         5.366217         0.732211
 H         1.831039         2.335361         1.092941
 H         1.529316         3.314433         2.354127
 H        -0.747509         1.899206         2.603047
