19
Iteration:  4653charge 0 multiplicity 1
 O         0.218647         0.097584         0.301574
 C        -0.658824         1.122447         0.635136
 C        -2.170073         0.963653         0.652094
 C        -1.588654         1.949796        -0.341298
 C        -1.280398         3.200987         0.474416
 C        -0.258757         4.462345         0.047785
 O         0.818461         4.328538         0.975927
 C         1.065445         2.982914         1.288500
 C        -0.338980         2.314383         1.461725
 H        -0.227610        -0.726449         0.322946
 H        -2.579775         0.058982         0.322498
 H        -2.600902         1.258589         1.632731
 H        -1.472470         1.839824        -1.413735
 H        -2.311907         3.582923         0.810927
 H         0.001226         4.439043        -1.036403
 H        -0.885350         5.287030         0.455647
 H         1.790838         2.426947         0.567468
 H         1.515267         2.787728         2.295158
 H        -0.450990         2.058219         2.492073
