19
Iteration:    44
 O         0.238490         0.250749         0.255085
 C        -0.665617         1.207156         0.729754
 C        -2.144517         0.935408         0.597998
 C        -1.595298         2.012245        -0.253724
 C        -1.335210         3.190181         0.722132
 C        -0.446187         4.406914         0.275100
 O         0.943960         4.020799         0.366369
 C         1.058161         2.972610         1.295035
 C        -0.309036         2.397169         1.580596
 H         0.235587        -0.480586         0.810124
 H        -2.221454        -0.023896         0.122009
 H        -2.854167         1.044196         1.409875
 H        -1.490181         2.100850        -1.316335
 H        -2.265543         3.558006         1.250657
 H        -0.588003         4.715348        -0.743300
 H        -0.647177         5.210437         1.046766
 H         1.649971         2.250676         0.788498
 H         1.567718         3.351522         2.185120
 H        -0.443357         2.248513         2.628284
