19
Iteration:  4436charge 0 multiplicity 1
 O         0.386833         0.299928         0.267809
 C        -0.699303         1.155291         0.530608
 C        -2.217210         0.919172         0.672699
 C        -1.680929         1.954613        -0.320044
 C        -1.279023         3.274646         0.528082
 C        -0.212273         4.241451         0.019645
 O         0.879914         4.279752         1.029047
 C         1.034138         2.907818         1.390576
 C        -0.455475         2.339330         1.436608
 H         0.100707        -0.601362        -0.064421
 H        -2.876359         0.122299         0.275860
 H        -2.592097         1.353189         1.502885
 H        -1.961495         1.728376        -1.389186
 H        -2.119995         3.787329         0.892043
 H         0.328543         3.983667        -1.004631
 H        -0.660504         5.248416         0.035929
 H         1.504040         2.477929         0.489815
 H         1.557502         2.817558         2.420527
 H        -0.812646         2.091274         2.508810
