19
Iteration:  1777charge 0 multiplicity 1
 O         0.242753         0.312063         0.191875
 C        -0.716242         1.240463         0.700941
 C        -2.160542         0.923275         0.505732
 C        -1.479324         1.997086        -0.247941
 C        -1.300567         3.284251         0.728336
 C        -0.398799         4.444845         0.339397
 O         0.874618         3.813796         0.238673
 C         1.039543         3.004988         1.458536
 C        -0.330617         2.390475         1.710955
 H         0.033728        -0.540266         0.729088
 H        -2.351362         0.011554        -0.064525
 H        -2.892174         1.048310         1.261792
 H        -1.291755         2.119758        -1.282597
 H        -2.338267         3.599092         1.083859
 H        -0.547594         4.795282        -0.709870
 H        -0.523278         5.282240         1.065819
 H         1.903375         2.288399         1.100883
 H         1.521647         3.528384         2.245398
 H        -0.624116         2.204203         2.814299
