19
Iteration:  4314charge 0 multiplicity 1
 O         0.268524         0.189836         0.279807
 C        -0.767026         1.099477         0.662221
 C        -2.200072         0.842529         0.641421
 C        -1.454260         1.950338        -0.366944
 C        -1.197586         3.299798         0.448922
 C        -0.263180         4.424167         0.130363
 O         0.856776         4.261145         1.095165
 C         0.943002         2.888292         1.173644
 C        -0.431621         2.414544         1.481072
 H         0.012782        -0.630004         0.597984
 H        -2.610321         0.092895         0.065992
 H        -2.792067         1.120538         1.409533
 H        -1.436583         1.902297        -1.454078
 H        -2.140719         3.681645         0.632637
 H        -0.010141         4.409057        -0.906042
 H        -0.595377         5.452195         0.186527
 H         1.465180         2.396572         0.320831
 H         1.661541         2.683584         2.006526
 H        -0.501664         2.431556         2.610112
