19
Iteration:  4332
 O         0.228856         0.136440         0.266762
 C        -0.654784         1.141245         0.633999
 C        -2.148363         0.981094         0.533908
 C        -1.542858         1.906913        -0.342032
 C        -1.297733         3.244456         0.471605
 C        -0.217073         4.390687         0.129387
 O         0.866633         4.332501         1.039116
 C         1.004645         2.880076         1.272375
 C        -0.437986         2.324837         1.492476
 H         0.324070        -0.404641         1.001743
 H        -2.468082        -0.041537         0.140114
 H        -2.843938         1.386858         1.413575
 H        -1.759892         1.760609        -1.421155
 H        -2.179360         3.675797         1.083136
 H         0.241458         4.582172        -0.902259
 H        -0.873980         5.381980         0.248766
 H         1.322419         2.428084         0.306905
 H         1.765424         2.680848         1.949161
 H        -0.914942         2.398908         2.496334
