19
Iteration:   228charge 0 multiplicity 1
 O         0.334050         0.366367        -0.029572
 C        -0.641665         1.241226         0.617910
 C        -2.125686         0.969840         0.750993
 C        -1.523217         2.123471        -0.136621
 C        -1.307839         3.288999         0.776979
 C        -0.400899         4.215058         0.126126
 O         0.906937         3.792896         0.307319
 C         0.930192         3.027212         1.533963
 C        -0.366253         2.350984         1.693463
 H         0.332822        -0.488629         0.588963
 H        -2.496296         0.093670         0.237460
 H        -2.698798         1.265473         1.572869
 H        -1.830888         2.239348        -1.213020
 H        -2.312769         3.710340         1.098089
 H        -0.658418         4.219801        -0.902724
 H        -0.578352         5.256986         0.586174
 H         1.795103         2.436727         1.535231
 H         1.100975         3.767469         2.419007
 H        -0.667022         2.122896         2.759290
