19
Iteration:  4527charge 0 multiplicity 1
 O         0.209518         0.047360         0.334756
 C        -0.636351         1.154408         0.560466
 C        -2.177642         1.005634         0.549991
 C        -1.548411         1.991006        -0.364567
 C        -1.233860         3.210312         0.583028
 C        -0.329116         4.377033         0.103324
 O         0.868684         4.268895         0.810828
 C         1.043464         2.977809         1.476516
 C        -0.393661         2.312863         1.550900
 H         0.376003         0.195361        -0.549554
 H        -2.205712         0.060683         0.108731
 H        -2.737954         1.209292         1.514872
 H        -1.883805         1.973257        -1.380909
 H        -2.134727         3.678551         1.076444
 H        -0.244203         4.269230        -1.074332
 H        -0.891954         5.288404         0.190773
 H         1.559466         2.205831         0.784801
 H         1.531848         3.289759         2.415120
 H        -0.702711         2.198702         2.581984
