19
Iteration:  4658
 O         0.222407         0.079824         0.296677
 C        -0.667586         1.126397         0.617678
 C        -2.155175         1.006837         0.667883
 C        -1.546295         1.950111        -0.343908
 C        -1.238052         3.206989         0.477814
 C        -0.284139         4.442998         0.057597
 O         0.805237         4.337326         0.967487
 C         1.041729         2.954531         1.317926
 C        -0.356319         2.301143         1.445871
 H        -0.286815        -0.777203         0.142837
 H        -2.552596        -0.036891         0.369611
 H        -2.596770         1.168363         1.644235
 H        -1.681628         1.764310        -1.430075
 H        -2.106767         3.646944         0.877891
 H        -0.092949         4.515896        -1.020272
 H        -0.884073         5.329278         0.275804
 H         1.682478         2.508428         0.622590
 H         1.667519         2.839078         2.273364
 H        -0.510658         2.286657         2.636897
