19
Iteration:  1345charge 0 multiplicity 1
 O         0.321744         0.457582         0.206726
 C        -0.673696         1.243354         0.679957
 C        -2.131167         0.781177         0.443360
 C        -1.648858         2.117334        -0.170990
 C        -1.352606         3.326339         0.796762
 C        -0.284592         4.353195         0.274952
 O         0.853936         3.636089         0.228103
 C         1.063649         3.050867         1.441205
 C        -0.420795         2.405665         1.704848
 H         0.293082        -0.318805         0.715934
 H        -2.133652        -0.067295        -0.221897
 H        -2.801581         0.734019         1.352965
 H        -1.768800         2.359783        -1.273088
 H        -2.250117         3.897799         1.255827
 H        -0.580918         4.644892        -0.842244
 H        -0.321518         5.220004         0.947413
 H         1.912051         2.323120         1.341594
 H         1.294502         3.798643         2.309205
 H        -0.468729         2.344537         2.898688
