19
Iteration:  4642charge 0 multiplicity 1
 O         0.228811         0.125242         0.316574
 C        -0.724041         1.116315         0.585830
 C        -2.182118         0.867233         0.627323
 C        -1.565626         1.942296        -0.323756
 C        -1.315844         3.233514         0.501015
 C        -0.318517         4.371590         0.131232
 O         0.869494         4.342137         0.973568
 C         1.080918         2.966203         1.263362
 C        -0.296011         2.347230         1.445662
 H        -0.060590        -0.637633         0.770112
 H        -2.599896         0.083083         0.073851
 H        -2.873699         1.447121         1.235847
 H        -1.594412         1.900256        -1.417653
 H        -2.203554         3.709700         1.055068
 H         0.123504         4.366137        -0.893131
 H        -0.615744         5.470009         0.167222
 H         1.681701         2.454061         0.406614
 H         1.642202         3.135566         2.225315
 H        -0.608243         2.242607         2.478720
