19
Iteration:  4804
 O         0.304641         0.196758         0.267232
 C        -0.694166         1.160477         0.599834
 C        -2.101299         0.900379         0.553576
 C        -1.612895         2.132495        -0.277998
 C        -1.287819         3.280274         0.666811
 C        -0.341222         4.257678         0.078170
 O         0.914697         4.197082         0.645842
 C         1.004268         3.022504         1.521846
 C        -0.337886         2.252295         1.588023
 H        -0.110046        -0.646766         0.030963
 H        -2.419117         0.185542        -0.200289
 H        -2.953240         0.846727         1.420008
 H        -1.724148         2.244941        -1.336303
 H        -2.221117         3.682254         1.055016
 H        -0.303501         4.028239        -0.963825
 H        -0.754718         5.331031         0.029406
 H         1.655238         2.333736         1.004263
 H         1.218041         3.287783         2.511859
 H        -0.824177         2.117648         2.583014
