19
Iteration:  1271charge 0 multiplicity 1
 O         0.235370         0.286828         0.220784
 C        -0.675916         1.292232         0.559527
 C        -2.092596         0.780582         0.574762
 C        -1.735743         2.029025        -0.262026
 C        -1.334547         3.270125         0.795212
 C        -0.280226         4.362592         0.282588
 O         1.019274         3.887645         0.261038
 C         0.981991         3.110086         1.425216
 C        -0.399000         2.384313         1.664011
 H         0.183574        -0.345920         0.895341
 H        -2.085532        -0.153263         0.094770
 H        -2.670749         0.871221         1.470447
 H        -1.891653         2.197645        -1.378663
 H        -2.252858         3.718389         1.321937
 H        -0.484692         4.710210        -0.665144
 H        -0.358162         5.114371         1.183916
 H         1.773487         2.316278         1.448717
 H         1.346332         3.634334         2.270995
 H        -0.590566         2.174438         2.654794
