19
Iteration:  2301charge 0 multiplicity 1
 O         0.357036         0.293963         0.288880
 C        -0.598302         1.230348         0.545702
 C        -2.106581         0.988426         0.513023
 C        -1.580389         2.088501        -0.239835
 C        -1.385474         3.292886         0.765482
 C        -0.392772         4.396845         0.374456
 O         0.915834         3.824279         0.223891
 C         0.960887         2.933780         1.420429
 C        -0.397885         2.340029         1.653800
 H         0.240691        -0.292876         1.045222
 H        -2.377084         0.093161        -0.001308
 H        -2.791975         1.003856         1.459371
 H        -1.872391         2.049447        -1.290663
 H        -2.427910         3.692994         1.197735
 H        -0.447908         4.802889        -0.674093
 H        -0.392425         5.297089         1.001788
 H         1.792204         2.189521         1.139950
 H         1.224437         3.587413         2.246229
 H        -0.691023         2.207994         2.755918
