19
Iteration:  1843charge 0 multiplicity 1
 O         0.174792         0.262234         0.193285
 C        -0.655128         1.227537         0.641725
 C        -2.166563         0.830677         0.519676
 C        -1.693797         2.119127        -0.155662
 C        -1.334806         3.239788         0.752154
 C        -0.330266         4.340697         0.220882
 O         1.025477         3.955631         0.372412
 C         1.063617         3.087367         1.487193
 C        -0.350785         2.383926         1.514084
 H         0.428156        -0.506138         0.808410
 H        -2.221211        -0.070611        -0.046612
 H        -2.837087         0.642673         1.365811
 H        -1.767490         2.098624        -1.223791
 H        -2.144324         3.739501         1.378496
 H        -0.473106         4.386444        -0.889194
 H        -0.555796         5.315434         0.628214
 H         1.896422         2.209443         1.502021
 H         1.143296         3.567146         2.487389
 H        -0.450548         2.164453         2.660861
