19
Iteration:  2031
 O         0.260699         0.205454         0.292004
 C        -0.650059         1.205021         0.583677
 C        -2.153743         0.992644         0.559613
 C        -1.572738         2.089588        -0.252190
 C        -1.259417         3.201418         0.772730
 C        -0.435047         4.332567         0.239537
 O         0.949008         3.993839         0.356449
 C         1.032810         3.020093         1.427934
 C        -0.353976         2.314335         1.550334
 H         0.027505        -0.615530         0.867161
 H        -2.486129         0.129138        -0.076383
 H        -2.694580         1.357166         1.401378
 H        -1.799735         2.316163        -1.282819
 H        -2.220533         3.515207         1.276562
 H        -0.706383         4.495346        -0.822226
 H        -0.702283         5.309759         0.758735
 H         1.981872         2.409512         1.338844
 H         1.208420         3.514844         2.390833
 H        -0.640016         2.285457         2.678664
