19
Iteration:   229
 O         0.333731         0.359025        -0.027121
 C        -0.642935         1.249195         0.605208
 C        -2.120676         0.971613         0.748409
 C        -1.530191         2.118255        -0.136232
 C        -1.304709         3.294513         0.781559
 C        -0.397240         4.199589         0.130355
 O         0.902202         3.802237         0.301969
 C         0.930067         3.027813         1.536767
 C        -0.364306         2.352094         1.697052
 H         0.329527        -0.491336         0.614783
 H        -2.493368         0.064970         0.258389
 H        -2.694656         1.287324         1.559386
 H        -1.823589         2.257328        -1.225606
 H        -2.314426         3.727072         1.115174
 H        -0.640907         4.225081        -0.885829
 H        -0.586481         5.263391         0.582237
 H         1.802310         2.434605         1.545523
 H         1.113236         3.755812         2.439034
 H        -0.689155         2.112433         2.720626
