19
Iteration:  3632charge 0 multiplicity 1
 O         0.193468        -0.023856         0.321496
 C        -0.645806         1.094442         0.617120
 C        -2.181506         0.983232         0.621216
 C        -1.582923         2.003107        -0.284442
 C        -1.285110         3.273160         0.517796
 C        -0.292940         4.387477         0.037249
 O         0.861052         4.323937         0.911322
 C         1.055604         2.977601         1.315029
 C        -0.396327         2.322795         1.510082
 H         0.917189         0.342411        -0.336693
 H        -2.712599         0.147253         0.260309
 H        -2.566388         1.272861         1.550076
 H        -1.522292         1.762978        -1.342875
 H        -2.161479         3.665857         0.934643
 H         0.017818         4.284061        -1.018108
 H        -0.884155         5.332511         0.283661
 H         1.606153         2.451495         0.494358
 H         1.532796         3.046661         2.363184
 H        -0.548194         2.167782         2.591411
