19
Iteration:  4494charge 0 multiplicity 1
 O         0.236009         0.150322         0.274479
 C        -0.756890         1.113180         0.679046
 C        -2.206748         0.960230         0.424693
 C        -1.525901         2.005575        -0.253163
 C        -1.251183         3.251680         0.719961
 C        -0.260036         4.212526         0.058491
 O         0.853785         4.348942         0.829573
 C         1.055905         3.022679         1.397101
 C        -0.396790         2.323614         1.567035
 H         0.035736         0.000927        -0.685963
 H        -2.205506         0.048927        -0.107689
 H        -2.968885         0.949885         1.272051
 H        -1.518414         1.978948        -1.331289
 H        -2.226968         3.574218         1.183903
 H         0.073022         3.649478        -0.950910
 H        -0.726825         5.113220        -0.280586
 H         1.835311         2.522954         0.747259
 H         1.647453         3.080674         2.303754
 H        -0.675424         2.208127         2.585785
