19
Iteration:   711charge 0 multiplicity 1
 O         0.364467         0.376954         0.249651
 C        -0.679394         1.238999         0.551713
 C        -2.211097         0.910316         0.608945
 C        -1.577506         2.121630        -0.178917
 C        -1.334790         3.257899         0.797355
 C        -0.395040         4.360778         0.256757
 O         0.929173         3.814736         0.251003
 C         0.976483         3.008210         1.395962
 C        -0.338459         2.248965         1.622012
 H         0.311334        -0.458363         0.781069
 H        -2.553330         0.055979         0.062139
 H        -2.853369         1.314537         1.436722
 H        -1.696826         2.302462        -1.247406
 H        -2.112177         3.730495         1.348809
 H        -0.656677         4.772673        -0.714161
 H        -0.381209         5.160495         0.987153
 H         1.967790         2.389778         1.297108
 H         1.107543         3.682697         2.255107
 H        -0.499699         1.992673         2.618421
