19
Iteration:  1221charge 0 multiplicity 1
 O         0.243724         0.201618         0.214765
 C        -0.646047         1.172971         0.657164
 C        -2.150327         1.052123         0.597269
 C        -1.472343         2.059213        -0.246779
 C        -1.374707         3.213038         0.792949
 C        -0.503417         4.363466         0.239562
 O         0.929349         4.055555         0.353551
 C         1.091128         3.016871         1.384065
 C        -0.312887         2.269311         1.610945
 H         0.025509        -0.671011         0.683890
 H        -2.773541         0.272870         0.167639
 H        -2.637382         1.586593         1.441887
 H        -1.343332         2.052616        -1.335644
 H        -2.339953         3.341720         1.173835
 H        -0.684702         4.367148        -0.931631
 H        -0.618689         5.339111         0.684034
 H         1.842543         2.333030         1.056720
 H         1.547819         3.346623         2.369901
 H        -0.749481         1.932936         2.662568
