19
Iteration:   948
 O         0.322901         0.392285         0.310610
 C        -0.709207         1.203636         0.775363
 C        -2.164032         0.904182         0.494636
 C        -1.498151         2.063304        -0.253686
 C        -1.323435         3.202417         0.698884
 C        -0.396592         4.457089         0.433534
 O         0.873988         3.879891         0.129420
 C         1.032691         2.896712         1.352028
 C        -0.362749         2.376623         1.663054
 H         0.013993        -0.512980         0.380538
 H        -2.220311        -0.013027        -0.104829
 H        -2.902109         1.119722         1.174037
 H        -1.456929         1.954284        -1.314237
 H        -2.266751         3.488250         1.336445
 H        -0.716435         5.136259        -0.413456
 H        -0.480731         5.040725         1.391166
 H         1.645525         2.150663         1.108473
 H         1.536734         3.424935         2.189150
 H        -0.632166         2.387413         2.729383
