19
Iteration:  1475
 O         0.297299         0.277279         0.304971
 C        -0.633749         1.237417         0.530130
 C        -2.157254         1.042840         0.559291
 C        -1.529225         2.091641        -0.265626
 C        -1.313107         3.178489         0.745045
 C        -0.443488         4.440302         0.355274
 O         0.910449         3.888876         0.253884
 C         1.004535         2.954777         1.384052
 C        -0.349921         2.249741         1.609841
 H         0.227720        -0.125825         1.265186
 H        -2.608757         0.159583         0.094784
 H        -2.677758         1.310306         1.574301
 H        -1.622638         2.156025        -1.346849
 H        -2.245562         3.513010         1.140623
 H        -0.908732         4.867078        -0.661816
 H        -0.500660         5.190501         1.196882
 H         1.744814         2.165474         1.213938
 H         1.507313         3.424981         2.316881
 H        -0.558532         2.110774         2.725628
