19
Iteration:  3894charge 0 multiplicity 1
 O         0.321785         0.202936         0.462804
 C        -0.720404         1.160183         0.561496
 C        -2.225815         0.916310         0.499761
 C        -1.527267         2.101075        -0.394695
 C        -1.235322         3.247082         0.667667
 C        -0.298715         4.272971         0.089398
 O         0.894340         4.294244         0.960001
 C         1.061483         2.918949         1.210158
 C        -0.481432         2.273555         1.490628
 H         0.006635        -0.656947         0.251372
 H        -2.526594         0.018979        -0.066616
 H        -2.900444         1.057306         1.311652
 H        -1.791956         2.240535        -1.480771
 H        -2.110436         3.886201         1.214581
 H         0.037016         4.093667        -0.922411
 H        -0.758652         5.324287         0.025761
 H         1.385799         2.349187         0.270339
 H         1.726887         2.727824         2.101858
 H        -0.781312         2.111740         2.556539
