19
Iteration:  2981
 O         0.235300         0.279266         0.173829
 C        -0.651077         1.240854         0.653251
 C        -2.098424         0.886095         0.513354
 C        -1.537183         2.078906        -0.240400
 C        -1.285540         3.246093         0.718354
 C        -0.391297         4.404712         0.272588
 O         0.943300         3.776783         0.321452
 C         0.939754         3.113788         1.550281
 C        -0.401102         2.332427         1.598126
 H         0.716435        -0.212602         0.907160
 H        -2.116366         0.042288        -0.186108
 H        -2.982371         1.054636         1.149647
 H        -1.641799         2.320623        -1.334782
 H        -2.086716         3.584937         1.258788
 H        -0.550894         4.847454        -0.694962
 H        -0.455779         5.170522         1.091104
 H         1.951750         2.384513         1.571529
 H         0.901432         3.826894         2.420855
 H        -0.884109         2.217387         2.587287
