19
Iteration:  4603
 O         0.195896         0.142146         0.312447
 C        -0.669987         1.150815         0.679375
 C        -2.186372         0.876789         0.443479
 C        -1.460783         2.087151        -0.282013
 C        -1.307857         3.368661         0.699565
 C        -0.312129         4.281394         0.032901
 O         0.775984         4.262422         0.884078
 C         1.055619         2.945761         1.220253
 C        -0.331015         2.271068         1.591747
 H         0.864680         0.039888         1.125201
 H        -2.375196         0.091837        -0.294933
 H        -3.132841         1.229810         0.910100
 H        -1.465767         2.037572        -1.341712
 H        -2.138127         3.721754         1.234147
 H        -0.159681         3.643180        -0.820389
 H        -0.727074         5.247620        -0.092266
 H         1.331712         2.446353         0.276000
 H         1.897818         2.805392         1.979276
 H        -0.492937         2.268966         2.769867
