19
Iteration:  2205
 O         0.422295         0.297391         0.256888
 C        -0.634095         1.242375         0.557962
 C        -2.152929         0.967241         0.625486
 C        -1.627926         2.133586        -0.217801
 C        -1.400131         3.263249         0.730069
 C        -0.368274         4.355151         0.245771
 O         0.926707         3.855229         0.351446
 C         0.953612         2.955218         1.474545
 C        -0.370974         2.322688         1.489103
 H         0.181078        -0.526590         0.569361
 H        -2.560763         0.055374         0.347542
 H        -2.491969         1.273891         1.605509
 H        -1.788362         2.156056        -1.296044
 H        -2.224871         3.761903         1.370245
 H        -0.716557         4.608396        -0.767498
 H        -0.344033         5.281146         0.933526
 H         1.870700         2.227455         1.198090
 H         1.179059         3.466612         2.446188
 H        -0.862140         2.154576         2.480625
