19
Iteration:  4811charge 0 multiplicity 1
 O         0.286756         0.161121         0.257927
 C        -0.639382         1.183020         0.581243
 C        -2.105458         0.892455         0.539568
 C        -1.561487         2.163493        -0.261180
 C        -1.359323         3.273739         0.721238
 C        -0.413683         4.272920         0.008089
 O         0.903931         4.155132         0.667782
 C         1.043463         2.963227         1.532094
 C        -0.348675         2.326410         1.593109
 H        -0.070100        -0.674382         0.154218
 H        -2.394627         0.221173        -0.307809
 H        -2.910635         1.003974         1.146164
 H        -1.833538         2.210296        -1.351824
 H        -2.226870         3.669122         1.243992
 H        -0.252386         3.921935        -1.067129
 H        -0.624776         5.304888         0.073783
 H         1.921573         2.429299         1.061289
 H         1.283600         3.535953         2.512683
 H        -0.713038         2.196329         2.660039
