19
Iteration:  1729charge 0 multiplicity 1
 O         0.370688         0.293940         0.391147
 C        -0.680262         1.235086         0.550225
 C        -2.120121         0.957725         0.425289
 C        -1.508988         2.240327        -0.187268
 C        -1.323145         3.297346         0.864889
 C        -0.419924         4.382415         0.276619
 O         0.800694         3.706178         0.242851
 C         1.020560         2.959564         1.404229
 C        -0.357977         2.339718         1.592356
 H         0.096547        -0.441839         0.815055
 H        -2.455510         0.197582        -0.226643
 H        -2.790216         1.096956         1.297022
 H        -1.768760         2.478247        -1.290634
 H        -2.114597         3.682388         1.427861
 H        -0.510774         4.719397        -0.735484
 H        -0.531294         5.183654         0.969575
 H         1.857463         2.442201         1.087981
 H         1.350123         3.527024         2.291880
 H        -0.584042         1.936354         2.590893
