19
Iteration:  4373charge 0 multiplicity 1
 O         0.129456         0.046098         0.276359
 C        -0.687864         1.109427         0.612267
 C        -2.187544         0.957841         0.367991
 C        -1.542677         2.087574        -0.324292
 C        -1.213050         3.198454         0.710097
 C        -0.338852         4.260555         0.001131
 O         0.825381         4.373298         0.923077
 C         1.080817         3.029598         1.391083
 C        -0.267681         2.282581         1.567566
 H         0.635267        -0.323747         1.076421
 H        -2.473778         0.080504        -0.309191
 H        -3.037659         1.336206         1.045884
 H        -1.807949         2.270200        -1.387912
 H        -2.050726         3.793069         1.251672
 H        -0.093311         3.858443        -0.976700
 H        -0.766509         5.237160         0.029248
 H         1.720746         2.484314         0.662079
 H         1.543368         3.167952         2.428437
 H        -0.459726         2.055519         2.587708
