19
Iteration:  3439
 O         0.321470         0.305653         0.306151
 C        -0.767285         1.141227         0.714596
 C        -2.195297         0.905825         0.498671
 C        -1.616618         2.082604        -0.249844
 C        -1.295790         3.231775         0.683276
 C        -0.347587         4.275530         0.160721
 O         0.994036         4.106533         0.572181
 C         1.008673         2.924719         1.390456
 C        -0.476766         2.357381         1.578138
 H         1.036445         0.791833         0.059707
 H        -2.080757         0.062407        -0.251696
 H        -3.024750         0.819475         1.275497
 H        -1.483662         1.894145        -1.346735
 H        -2.131775         3.736977         1.057352
 H        -0.268036         4.208222        -0.982319
 H        -0.674276         5.259376         0.297629
 H         1.803588         2.132340         0.986986
 H         1.315793         3.124127         2.411427
 H        -0.646864         2.128219         2.632526
