19
Iteration:  2521charge 0 multiplicity 1
 O         0.228310         0.263912         0.188339
 C        -0.669462         1.198276         0.693913
 C        -2.079413         0.923680         0.653128
 C        -1.393515         2.076166        -0.221721
 C        -1.324187         3.251002         0.729550
 C        -0.427589         4.396226         0.253695
 O         0.863377         3.728256         0.281834
 C         0.972238         3.030973         1.457126
 C        -0.410224         2.417746         1.651476
 H         0.821428         0.854382        -0.438335
 H        -2.353655         0.166883        -0.091485
 H        -2.702587         1.322427         1.462780
 H        -1.535563         2.185344        -1.272694
 H        -2.255706         3.552281         1.015033
 H        -0.648778         4.652807        -0.752812
 H        -0.468855         5.277940         0.964928
 H         1.911952         2.412716         1.486200
 H         1.139006         3.699228         2.316619
 H        -0.780894         2.231598         2.672196
