19
Iteration:  2441
 O         0.258785         0.280793         0.210832
 C        -0.696064         1.179100         0.719919
 C        -2.066075         0.936922         0.599900
 C        -1.502589         2.085375        -0.181620
 C        -1.372696         3.271355         0.722427
 C        -0.396115         4.340439         0.240642
 O         0.924257         3.837698         0.298810
 C         0.989970         2.949495         1.454402
 C        -0.398629         2.408125         1.602106
 H         1.123126         0.857105         0.043735
 H        -2.481140         0.171856        -0.079139
 H        -2.661029         1.084531         1.595457
 H        -1.609685         2.056398        -1.297532
 H        -2.198315         3.777670         1.179558
 H        -0.724815         4.690288        -0.800008
 H        -0.502867         5.262566         0.874536
 H         1.657265         2.209370         1.100949
 H         1.360242         3.524194         2.332331
 H        -0.975223         2.185212         2.493755
