19
Iteration:  3753
 O         0.241129         0.225268         0.173036
 C        -0.734950         1.112649         0.640379
 C        -2.211228         0.886069         0.647589
 C        -1.537190         2.004778        -0.274292
 C        -1.243542         3.304095         0.530165
 C        -0.210122         4.335936        -0.017037
 O         0.851415         4.241563         0.923967
 C         0.959279         2.847938         1.382159
 C        -0.407224         2.340569         1.566874
 H         0.998665         0.327179         0.666417
 H        -2.497731        -0.029608         0.187300
 H        -2.778575         1.087096         1.476561
 H        -1.807961         2.091715        -1.335428
 H        -2.014759         3.859855         0.931681
 H         0.106729         4.149445        -1.120658
 H        -0.500777         5.433276        -0.002681
 H         1.457483         2.226190         0.562263
 H         1.554661         3.064900         2.309816
 H        -0.775526         2.116718         2.570994
