19
Iteration:  3087
 O         0.442365         0.368851         0.332914
 C        -0.713210         1.199977         0.553868
 C        -2.214851         0.921318         0.552545
 C        -1.506783         2.045951        -0.249623
 C        -1.330103         3.282337         0.704732
 C        -0.382083         4.425545         0.289945
 O         0.952636         3.832814         0.335733
 C         0.952372         2.907228         1.534281
 C        -0.444053         2.312070         1.576465
 H         0.345797        -0.138436        -0.567004
 H        -2.631778         0.153282        -0.111271
 H        -2.891395         1.421490         1.272650
 H        -1.456279         2.216364        -1.336271
 H        -2.376044         3.719760         1.113025
 H        -0.607572         4.781182        -0.794820
 H        -0.540651         5.322756         0.948243
 H         1.801259         2.314155         1.587016
 H         0.948083         3.545553         2.506975
 H        -0.626686         2.073026         2.631477
