19
Iteration:  2957charge 0 multiplicity 1
 O         0.388980         0.297808         0.191593
 C        -0.641672         1.237439         0.618479
 C        -2.116467         0.886190         0.555740
 C        -1.507723         2.065848        -0.238340
 C        -1.425323         3.330950         0.671306
 C        -0.371412         4.380497         0.256074
 O         0.948937         3.841644         0.382668
 C         0.987964         2.973514         1.481862
 C        -0.502238         2.378789         1.691695
 H         0.162314        -0.554412         0.440536
 H        -2.619493         0.132741        -0.052644
 H        -2.681644         1.169972         1.512091
 H        -1.532461         2.176782        -1.309621
 H        -2.377128         3.813222         0.970080
 H        -0.560939         4.678212        -0.831818
 H        -0.470792         5.328376         0.855597
 H         1.709975         2.109737         1.093514
 H         1.335514         3.500969         2.445037
 H        -0.831391         2.148758         2.736494
