19
Iteration:  2139
 O         0.310150         0.345759         0.141287
 C        -0.648886         1.215921         0.697061
 C        -2.132066         0.970359         0.504855
 C        -1.473691         2.075169        -0.191523
 C        -1.352556         3.350212         0.787276
 C        -0.404350         4.377604         0.218601
 O         0.847608         3.722201         0.185936
 C         1.003144         3.006073         1.583151
 C        -0.383631         2.340060         1.694680
 H         0.427238        -0.426399         0.795439
 H        -2.351113         0.097397        -0.062130
 H        -2.797419         1.016042         1.346763
 H        -1.585889         2.283430        -1.222136
 H        -2.347310         3.452537         1.303029
 H        -0.550129         4.782251        -0.795555
 H        -0.464195         5.272584         0.867925
 H         1.941422         2.312112         1.292207
 H         1.144757         3.757060         2.385667
 H        -0.626198         2.113011         2.803553
