19
Iteration:  3933charge 0 multiplicity 1
 O         0.140441         0.073702         0.285244
 C        -0.763002         1.086346         0.658712
 C        -2.157721         0.903812         0.385481
 C        -1.403541         2.041561        -0.285237
 C        -1.219979         3.249496         0.692756
 C        -0.363931         4.410875         0.090952
 O         0.863423         4.303746         0.785604
 C         1.106448         2.965855         1.390680
 C        -0.358523         2.351925         1.583950
 H        -0.151154        -0.712812         0.802376
 H        -2.285808        -0.006497        -0.260186
 H        -3.127607         1.160676         0.980597
 H        -1.293528         2.088595        -1.359028
 H        -2.111950         3.529948         1.146267
 H        -0.308752         4.129472        -0.986483
 H        -0.774421         5.385581         0.342629
 H         1.689233         2.438581         0.612897
 H         1.606324         3.333702         2.289441
 H        -0.770375         2.279208         2.598934
