19
Iteration:  2090charge 0 multiplicity 1
 O         0.325415         0.298435         0.228522
 C        -0.682166         1.246421         0.626129
 C        -2.141744         0.813765         0.556954
 C        -1.691385         2.041248        -0.238389
 C        -1.363860         3.375754         0.736872
 C        -0.371501         4.448024         0.298815
 O         0.956695         3.835681         0.311009
 C         1.055724         2.964535         1.429270
 C        -0.366905         2.366384         1.623709
 H         0.362706        -0.288730         1.001975
 H        -2.329413        -0.117501         0.018101
 H        -2.990088         0.989784         1.276305
 H        -1.485287         2.050450        -1.339374
 H        -2.327067         3.736482         1.131356
 H        -0.538496         4.760769        -0.743596
 H        -0.351251         5.388857         0.928731
 H         1.781175         2.280597         1.208038
 H         1.317006         3.606753         2.345168
 H        -0.598640         2.147028         2.625060
