19
Iteration:  4778charge 0 multiplicity 1
 O         0.354888         0.288095         0.268558
 C        -0.721137         1.167685         0.586595
 C        -2.218221         0.835677         0.680024
 C        -1.639998         1.951236        -0.314478
 C        -1.357303         3.263138         0.591900
 C        -0.306304         4.359330         0.052351
 O         0.966367         4.191127         0.771832
 C         1.069364         2.943194         1.469410
 C        -0.346752         2.361578         1.505670
 H         0.078878        -0.438029        -0.339677
 H        -2.651843        -0.000915         0.070906
 H        -2.952263         1.176278         1.301765
 H        -1.837151         1.997832        -1.423914
 H        -2.261721         3.590610         1.051231
 H        -0.202851         4.327618        -1.056955
 H        -0.667077         5.338151         0.231953
 H         1.777630         2.176960         1.072965
 H         1.318213         3.026387         2.605087
 H        -0.876885         2.341717         2.491958
