19
Iteration:   949charge 0 multiplicity 1
 O         0.312834         0.392336         0.308104
 C        -0.698769         1.204730         0.778279
 C        -2.166199         0.910617         0.494730
 C        -1.490419         2.062871        -0.259093
 C        -1.326365         3.206815         0.702998
 C        -0.406184         4.462293         0.425270
 O         0.872076         3.874471         0.134554
 C         1.028347         2.892684         1.360385
 C        -0.352927         2.373691         1.661983
 H         0.053253        -0.480352         0.364878
 H        -2.217854        -0.046087        -0.075729
 H        -2.883728         1.132159         1.204699
 H        -1.431973         1.981415        -1.341091
 H        -2.294875         3.461666         1.320115
 H        -0.722123         5.127083        -0.427754
 H        -0.462696         5.029427         1.371456
 H         1.668551         2.126486         1.075011
 H         1.557666         3.447550         2.168073
 H        -0.662022         2.366089         2.766493
