19
Iteration:  1477
 O         0.302328         0.283976         0.301083
 C        -0.631144         1.225909         0.550691
 C        -2.163945         1.037124         0.558415
 C        -1.514703         2.086085        -0.265356
 C        -1.320975         3.205905         0.746269
 C        -0.460261         4.448454         0.355914
 O         0.909079         3.875093         0.248787
 C         1.009904         2.941805         1.388986
 C        -0.358850         2.260316         1.608621
 H         0.250032        -0.130379         1.155414
 H        -2.613235         0.163095         0.082577
 H        -2.615150         1.312272         1.480315
 H        -1.617736         2.127778        -1.323984
 H        -2.293058         3.479728         1.193681
 H        -0.843853         4.879626        -0.619091
 H        -0.442730         5.199933         1.163606
 H         1.738466         2.177650         1.211676
 H         1.454056         3.364848         2.278761
 H        -0.505974         2.185993         2.734970
