19
Iteration:   222charge 0 multiplicity 1
 O         0.321332         0.420315        -0.025705
 C        -0.627238         1.180269         0.694513
 C        -2.142251         0.962686         0.745425
 C        -1.509375         2.130084        -0.132876
 C        -1.341276         3.243940         0.757723
 C        -0.424032         4.327789         0.099352
 O         0.943185         3.731101         0.331544
 C         0.942760         3.050250         1.527013
 C        -0.387917         2.340228         1.678886
 H         0.403423        -0.495342         0.376978
 H        -2.549001         0.203426         0.029714
 H        -2.713238         1.134566         1.729361
 H        -1.810902         2.079208        -1.170903
 H        -2.274025         3.665790         1.121920
 H        -0.666713         4.306235        -1.012962
 H        -0.486938         5.302987         0.576429
 H         1.844696         2.333093         1.453660
 H         1.009703         3.790250         2.299958
 H        -0.501129         2.208509         2.745207
