19
Iteration:  2870charge 0 multiplicity 1
 O         0.202615         0.177391         0.159778
 C        -0.576493         1.235198         0.620688
 C        -2.168442         1.003029         0.555676
 C        -1.419865         2.046170        -0.266627
 C        -1.353036         3.229136         0.756080
 C        -0.416995         4.384801         0.278063
 O         0.891463         3.788088         0.205829
 C         0.913688         3.133572         1.581713
 C        -0.354561         2.354626         1.692705
 H         1.069732         0.343659         0.680519
 H        -2.245332         0.050814         0.013383
 H        -2.792088         1.326296         1.405615
 H        -1.573364         2.263620        -1.306602
 H        -2.270264         3.497857         1.120379
 H        -0.578161         4.788518        -0.700864
 H        -0.259328         5.129161         1.028686
 H         1.867516         2.395397         1.649080
 H         1.099530         3.798242         2.399494
 H        -0.710877         2.083875         2.719060
