19
Iteration:  3769charge 0 multiplicity 1
 O         0.169809         0.055404         0.200927
 C        -0.697016         1.170275         0.605819
 C        -2.122070         0.925435         0.552118
 C        -1.624253         2.041013        -0.234186
 C        -1.248570         3.269896         0.587757
 C        -0.266174         4.291717        -0.005917
 O         0.888845         4.269681         0.893771
 C         1.037160         2.975250         1.447319
 C        -0.423088         2.359236         1.517176
 H         1.082589         0.331358         0.371822
 H        -2.514392         0.178452        -0.192669
 H        -2.831928         1.145645         1.485297
 H        -1.594176         1.856648        -1.316221
 H        -2.209156         3.614278         1.169665
 H         0.071122         3.994186        -0.985673
 H        -0.671042         5.270355         0.070054
 H         1.656027         2.365103         0.705337
 H         1.532185         3.025830         2.456147
 H        -0.729227         2.402271         2.587653
