19
Iteration:  1255charge 0 multiplicity 1
 O         0.230110         0.205886         0.188688
 C        -0.680051         1.166146         0.665935
 C        -2.119855         0.832083         0.612872
 C        -1.632785         2.049382        -0.177266
 C        -1.374091         3.273289         0.706642
 C        -0.377249         4.469288         0.272423
 O         0.994072         3.955515         0.322879
 C         1.107744         3.051909         1.459534
 C        -0.363813         2.379266         1.535116
 H         0.090945        -0.552685         0.693364
 H        -2.418292         0.012413        -0.116029
 H        -2.827912         0.934260         1.480435
 H        -1.689973         1.978467        -1.231811
 H        -2.241262         3.739264         1.210515
 H        -0.530857         4.931328        -0.809764
 H        -0.452310         5.352775         0.914561
 H         1.868144         2.337311         1.182437
 H         1.200404         3.655102         2.420818
 H        -0.689367         2.147435         2.651861
