19
Iteration:  1460charge 0 multiplicity 1
 O         0.258602         0.144940         0.334784
 C        -0.659757         1.212960         0.553178
 C        -2.156090         0.988447         0.582479
 C        -1.617232         2.146582        -0.308983
 C        -1.290193         3.245404         0.749406
 C        -0.428565         4.308418         0.345904
 O         0.910891         3.974475         0.324218
 C         1.061537         3.037096         1.389263
 C        -0.319156         2.305669         1.523239
 H         0.491717        -0.269827         1.104955
 H        -2.361268         0.064456         0.031476
 H        -2.855074         1.298413         1.419732
 H        -1.840663         2.380742        -1.369524
 H        -2.167345         3.583728         1.358734
 H        -0.545693         4.749874        -0.624770
 H        -0.560764         5.155019         1.094932
 H         1.956490         2.418144         1.045181
 H         1.230204         3.631187         2.355164
 H        -0.535124         1.913794         2.509253
