19
Iteration:    24charge 0 multiplicity 1
 O         0.247966         0.224479         0.143642
 C        -0.741121         1.106487         0.756321
 C        -2.142412         0.694568         0.591330
 C        -1.463021         2.069608        -0.110460
 C        -1.309554         3.382139         0.743196
 C        -0.397068         4.525995         0.246205
 O         0.964082         4.005050         0.261586
 C         1.010744         2.949232         1.344488
 C        -0.416075         2.430583         1.677535
 H         0.302991        -0.563980         0.789281
 H        -2.346234         0.023979        -0.217038
 H        -2.926489         0.701411         1.365157
 H        -1.508831         1.977926        -1.184081
 H        -2.192674         3.726378         1.196272
 H        -0.684038         4.905382        -0.782210
 H        -0.469437         5.404062         0.896488
 H         1.758037         2.260797         0.928551
 H         1.444208         3.362756         2.259902
 H        -0.656069         2.403292         2.766264
