19
Iteration:  1636charge 0 multiplicity 1
 O         0.257227         0.244493         0.141467
 C        -0.642594         1.183216         0.566594
 C        -2.156346         1.046898         0.629501
 C        -1.561941         2.161771        -0.235735
 C        -1.315345         3.288867         0.780419
 C        -0.466948         4.294342         0.097033
 O         0.925510         3.931576         0.423067
 C         1.031678         2.998801         1.563212
 C        -0.319336         2.226912         1.561134
 H         0.708405        -0.196491         1.003120
 H        -2.389920         0.129557        -0.035299
 H        -2.696877         1.016081         1.686818
 H        -1.980664         2.305074        -1.220530
 H        -2.159206         3.753163         1.482671
 H        -0.582086         4.283536        -1.028506
 H        -0.513603         5.318641         0.427301
 H         1.909125         2.226723         1.543862
 H         1.240797         3.672305         2.472152
 H        -0.679024         2.039194         2.571703
