19
Iteration:   248charge 0 multiplicity 1
 O         0.245295         0.281003         0.098020
 C        -0.592309         1.276381         0.552595
 C        -2.074025         0.914379         0.646791
 C        -1.764120         2.114093        -0.182737
 C        -1.372246         3.221563         0.834765
 C        -0.422638         4.327871         0.112684
 O         1.003665         3.827689         0.360089
 C         1.031458         3.116593         1.568016
 C        -0.325682         2.348158         1.562834
 H         0.383593        -0.410200         0.888981
 H        -2.340909         0.002391         0.133569
 H        -2.532363         1.026613         1.627898
 H        -1.921878         2.186148        -1.284005
 H        -2.160955         3.607339         1.507153
 H        -0.601492         4.305554        -0.999576
 H        -0.549416         5.286991         0.552306
 H         1.859856         2.419719         1.495594
 H         1.241290         3.769810         2.426279
 H        -0.514654         2.014089         2.662101
