19
Iteration:   250charge 0 multiplicity 1
 O         0.244511         0.271062         0.112128
 C        -0.619813         1.271636         0.558848
 C        -2.071773         0.896233         0.649760
 C        -1.764719         2.120383        -0.172924
 C        -1.361337         3.232381         0.814474
 C        -0.420646         4.333705         0.112405
 O         1.011703         3.831935         0.372458
 C         1.027254         3.112584         1.542840
 C        -0.301405         2.350787         1.556156
 H         0.354827        -0.339164         0.837129
 H        -2.320113         0.003127         0.055462
 H        -2.558617         0.939223         1.570331
 H        -2.037631         2.198848        -1.301012
 H        -2.266076         3.550130         1.491386
 H        -0.611758         4.320999        -0.924991
 H        -0.562692         5.347504         0.586052
 H         1.882024         2.477992         1.565209
 H         1.249332         3.788313         2.465083
 H        -0.466233         2.027690         2.643227
