19
Iteration:  3681charge 0 multiplicity 1
 O         0.195244         0.020018         0.279074
 C        -0.675864         1.155959         0.597269
 C        -2.166851         0.883474         0.552914
 C        -1.553033         2.090567        -0.302152
 C        -1.306593         3.216613         0.662320
 C        -0.264646         4.294907         0.013256
 O         0.846882         4.373918         0.851739
 C         1.089319         3.003575         1.417005
 C        -0.298230         2.361384         1.570606
 H        -0.306793        -0.448903        -0.329218
 H        -2.393995        -0.125878         0.074321
 H        -3.057390         1.177985         1.220359
 H        -1.891928         2.223129        -1.348102
 H        -2.282348         3.673455         1.144989
 H         0.082396         3.808703        -0.896067
 H        -0.664134         5.214375        -0.267842
 H         1.652341         2.554580         0.682143
 H         1.511467         3.090279         2.383111
 H        -0.598523         2.237397         2.624309
