19
Iteration:  4070charge 0 multiplicity 1
 O         0.262024         0.150621         0.303890
 C        -0.706419         1.093436         0.539525
 C        -2.191853         0.920239         0.598373
 C        -1.620036         2.042911        -0.294894
 C        -1.248329         3.277378         0.547501
 C        -0.207038         4.249480         0.032268
 O         0.850353         4.382932         0.949776
 C         1.043020         2.967581         1.427389
 C        -0.367793         2.325624         1.414727
 H        -0.201429        -0.770435         0.307774
 H        -2.525357         0.112443         0.010637
 H        -2.810041         1.140835         1.390299
 H        -1.853240         1.974206        -1.360486
 H        -2.127425         3.667599         1.074552
 H         0.075531         3.835405        -0.906059
 H        -0.689314         5.283472         0.090787
 H         1.731885         2.371867         0.820077
 H         1.428396         3.154296         2.393764
 H        -0.632694         1.966312         2.451827
