19
Iteration:  1847charge 0 multiplicity 1
 O         0.185384         0.259298         0.174691
 C        -0.685648         1.241046         0.639495
 C        -2.145180         0.841675         0.533571
 C        -1.672369         2.107806        -0.150278
 C        -1.313205         3.248759         0.739567
 C        -0.325246         4.317804         0.200658
 O         1.012512         3.961662         0.375681
 C         1.050872         3.082682         1.480344
 C        -0.348322         2.358366         1.589302
 H         0.342832        -0.447102         0.763380
 H        -2.277238        -0.015232        -0.181164
 H        -2.859289         0.678249         1.404682
 H        -1.783188         2.128541        -1.250819
 H        -2.188959         3.693372         1.280617
 H        -0.527264         4.365043        -0.903589
 H        -0.499839         5.323142         0.679824
 H         1.744945         2.323238         1.489756
 H         1.259714         3.657947         2.390964
 H        -0.496873         2.159833         2.614374
