19
Iteration:   486charge 0 multiplicity 1
 O         0.369233         0.451352         0.011291
 C        -0.618263         1.216311         0.655140
 C        -2.219565         1.012844         0.722863
 C        -1.593805         2.026473        -0.135613
 C        -1.301248         3.205278         0.805082
 C        -0.399660         4.311603         0.116352
 O         0.908502         3.753513         0.330870
 C         0.952970         3.062791         1.526334
 C        -0.336451         2.317516         1.657180
 H         0.407659        -0.378049         0.440783
 H        -2.536861         0.174200         0.075466
 H        -2.931661         1.418993         1.516433
 H        -1.492596         2.113030        -1.249891
 H        -2.311707         3.655473         1.205633
 H        -0.485599         4.360758        -1.026842
 H        -0.589619         5.339658         0.447279
 H         1.738789         2.319316         1.325187
 H         1.298820         3.561740         2.375623
 H        -0.733063         2.097443         2.733579
