19
Iteration:  3268
 O         0.363213         0.154249         0.257344
 C        -0.640917         1.206899         0.623194
 C        -2.097867         0.983716         0.473733
 C        -1.519728         2.074663        -0.284315
 C        -1.279196         3.272459         0.737308
 C        -0.413457         4.448852         0.260106
 O         0.890247         3.798004         0.314462
 C         0.898467         3.096751         1.639178
 C        -0.427892         2.359066         1.634223
 H         0.062245        -0.157905        -0.553736
 H        -2.186740         0.067064        -0.136123
 H        -2.721357         1.131366         1.348415
 H        -1.430613         2.110595        -1.385236
 H        -2.358871         3.721090         1.075046
 H        -0.555310         4.735429        -0.741652
 H        -0.586505         5.255996         1.023298
 H         1.785662         2.288728         1.582354
 H         1.149571         3.842303         2.459118
 H        -0.830828         2.226927         2.671345
