19
Iteration:   883charge 0 multiplicity 1
 O         0.264744         0.202022         0.245894
 C        -0.657858         1.193442         0.674387
 C        -2.134614         0.985145         0.545971
 C        -1.481062         2.098950        -0.254529
 C        -1.380420         3.235554         0.833600
 C        -0.504406         4.353991         0.239793
 O         0.897497         3.941399         0.254905
 C         1.084446         3.046323         1.446171
 C        -0.296442         2.326190         1.655501
 H        -0.219817        -0.739903         0.169813
 H        -2.507727         0.137554        -0.019589
 H        -2.738692         1.332645         1.321835
 H        -1.445055         2.391333        -1.276082
 H        -2.387425         3.455582         1.349262
 H        -0.609468         4.594596        -0.852886
 H        -0.509323         5.257098         0.777070
 H         1.864182         2.415541         1.180569
 H         1.354265         3.707797         2.320075
 H        -0.339294         2.051581         2.815089
