19
Iteration:  2323
 O         0.373915         0.384129         0.271862
 C        -0.732701         1.163121         0.703312
 C        -2.122246         0.781134         0.596055
 C        -1.598945         2.135774        -0.255178
 C        -1.316013         3.341486         0.686935
 C        -0.417273         4.446532         0.364496
 O         0.968852         3.789406         0.260615
 C         0.988457         2.968776         1.408326
 C        -0.424103         2.376732         1.545133
 H         0.126277        -0.574205         0.358661
 H        -2.440573         0.004663        -0.059140
 H        -2.943552         0.913032         1.414769
 H        -1.349560         2.125200        -1.334449
 H        -2.283212         3.592171         1.271606
 H        -0.477695         5.052936        -0.562408
 H        -0.411467         5.168027         1.179146
 H         1.714639         2.108457         1.115058
 H         1.269416         3.444034         2.356656
 H        -0.599757         2.601797         2.636532
