19
Iteration:  4472
 O         0.281567         0.211828         0.346603
 C        -0.715688         1.194618         0.549493
 C        -2.151757         0.805203         0.513259
 C        -1.677459         2.051589        -0.246496
 C        -1.258800         3.299672         0.620348
 C        -0.213791         4.174915        -0.055142
 O         0.816990         4.283636         0.979581
 C         1.019521         2.958530         1.382020
 C        -0.351470         2.362467         1.564972
 H         0.100682        -0.072629        -0.575090
 H        -2.576998         0.121691        -0.186167
 H        -2.858418         1.155213         1.340027
 H        -1.726953         2.187676        -1.327176
 H        -2.051585         3.972784         1.104538
 H         0.184190         3.858143        -1.107149
 H        -0.724118         5.088319        -0.229536
 H         1.622237         2.365321         0.611817
 H         1.808825         2.876244         2.141544
 H        -0.554506         2.141216         2.591812
