19
Iteration:  3038
 O         0.278761         0.256981         0.331669
 C        -0.695251         1.280929         0.562840
 C        -2.066013         0.874217         0.505665
 C        -1.524364         2.127832        -0.262057
 C        -1.419968         3.319386         0.709513
 C        -0.376885         4.414825         0.210935
 O         0.957910         3.828904         0.410569
 C         0.942831         2.978925         1.533755
 C        -0.406038         2.310964         1.641161
 H         0.531440         0.359838        -0.541636
 H        -2.024419        -0.027646        -0.115212
 H        -2.636583         0.907998         1.421109
 H        -1.551562         2.173626        -1.357192
 H        -2.269163         3.726277         1.079434
 H        -0.494540         4.716545        -0.814121
 H        -0.592121         5.260510         0.884053
 H         1.671218         2.013883         1.272465
 H         1.521345         3.496003         2.318928
 H        -0.786138         2.085954         2.653816
