19
Iteration:  3722charge 0 multiplicity 1
 O         0.313041         0.326206         0.232624
 C        -0.734322         1.181667         0.626557
 C        -2.252451         0.921302         0.560938
 C        -1.642149         1.942689        -0.311414
 C        -1.290344         3.299027         0.597880
 C        -0.246018         4.223328        -0.015672
 O         0.863546         4.252452         0.984660
 C         1.062750         2.881379         1.334239
 C        -0.362956         2.363219         1.507879
 H         0.383735        -0.445559         0.954971
 H        -2.379673        -0.079032         0.127501
 H        -2.886656         1.164692         1.413565
 H        -2.021546         2.079240        -1.343171
 H        -2.060675         3.779354         1.185690
 H         0.108717         3.665715        -0.930796
 H        -0.420900         5.259416        -0.140400
 H         1.467279         2.218483         0.470547
 H         1.824136         2.995318         2.155855
 H        -0.646859         2.145508         2.533672
