19
Iteration:  3818charge 0 multiplicity 1
 O         0.203314        -0.027533         0.313768
 C        -0.688863         1.094926         0.626004
 C        -2.251836         0.997237         0.475356
 C        -1.515253         2.097241        -0.296247
 C        -1.212648         3.254432         0.620061
 C        -0.304201         4.232959         0.025482
 O         0.800205         4.343563         0.914774
 C         1.074975         3.026290         1.441697
 C        -0.281177         2.321100         1.500494
 H         0.120403        -0.211904        -0.666156
 H        -2.530663         0.068252         0.002849
 H        -2.843721         1.197439         1.280542
 H        -1.713662         2.348384        -1.366807
 H        -2.113148         3.794826         1.023252
 H         0.116774         3.992581        -0.924771
 H        -0.891898         5.200741         0.009518
 H         1.701298         2.529231         0.739710
 H         1.379684         3.115974         2.480502
 H        -0.524138         2.395261         2.568594
