19
Iteration:  2982
 O         0.232787         0.278210         0.180154
 C        -0.648279         1.245177         0.656766
 C        -2.108089         0.879359         0.511126
 C        -1.536663         2.078894        -0.245286
 C        -1.286099         3.242143         0.717621
 C        -0.385156         4.408115         0.271990
 O         0.944340         3.774168         0.323505
 C         0.940353         3.122570         1.548111
 C        -0.399995         2.322652         1.601926
 H         0.724659        -0.174709         0.859810
 H        -2.135508         0.060391        -0.218953
 H        -2.967188         1.074556         1.151041
 H        -1.645920         2.352248        -1.338618
 H        -2.079110         3.602238         1.257623
 H        -0.594742         4.811271        -0.692457
 H        -0.453427         5.148997         1.100484
 H         1.999176         2.437866         1.566019
 H         0.900638         3.841523         2.405286
 H        -0.884832         2.187799         2.586606
