19
Iteration:   299
 O         0.266771         0.297347         0.169674
 C        -0.621862         1.209174         0.710936
 C        -2.159542         0.985361         0.639937
 C        -1.437859         2.023876        -0.223724
 C        -1.376067         3.258338         0.701617
 C        -0.469378         4.362500         0.313324
 O         0.875152         3.904615         0.302303
 C         1.060185         2.966449         1.386133
 C        -0.330628         2.370941         1.615553
 H         0.062192        -0.653297         0.441393
 H        -2.428969         0.058530         0.140177
 H        -2.913115         1.318449         1.451447
 H        -1.617594         2.038051        -1.246223
 H        -2.287602         3.731452         1.132044
 H        -0.671092         4.691053        -0.774889
 H        -0.681702         5.248626         0.974615
 H         1.921289         2.236418         1.144209
 H         1.510329         3.483395         2.302556
 H        -0.529085         2.272076         2.642986
