19
Iteration:  2233charge 0 multiplicity 1
 O         0.248955         0.266286         0.162588
 C        -0.670969         1.231393         0.674687
 C        -2.125777         0.864013         0.579608
 C        -1.531356         2.060613        -0.200618
 C        -1.311251         3.253865         0.666395
 C        -0.356850         4.398165         0.279345
 O         0.909542         3.879162         0.325987
 C         1.018325         3.063387         1.478823
 C        -0.349953         2.372945         1.634281
 H        -0.012026        -0.606450         0.498779
 H        -2.414867         0.044969        -0.182142
 H        -2.747849         0.944014         1.509575
 H        -1.688671         1.972796        -1.256476
 H        -2.167162         3.692498         1.158393
 H        -0.706982         4.807345        -0.690525
 H        -0.467836         5.228933         0.977458
 H         1.807224         2.409967         1.273587
 H         1.169336         3.667461         2.381525
 H        -0.756827         2.353067         2.647128
