19
Iteration:  4237
 O         0.223248         0.115952         0.364049
 C        -0.723527         1.132454         0.646958
 C        -2.155063         0.888232         0.407152
 C        -1.540157         2.065048        -0.317129
 C        -1.253978         3.229776         0.633145
 C        -0.321834         4.310391         0.073926
 O         0.895817         4.330256         0.811733
 C         1.049613         2.951697         1.410972
 C        -0.346784         2.332902         1.545428
 H        -0.308177        -0.616726        -0.106294
 H        -2.442535         0.040186        -0.156210
 H        -2.794109         1.213735         1.166553
 H        -1.798813         2.196951        -1.384098
 H        -2.017009         3.719814         1.239099
 H        -0.211336         4.167700        -1.072372
 H        -0.737075         5.301384         0.406724
 H         1.744724         2.307894         0.740117
 H         1.433067         3.216547         2.447303
 H        -0.658648         2.171623         2.613253
