19
Iteration:  4841
 O         0.249556         0.241284         0.226780
 C        -0.694259         1.170265         0.600384
 C        -2.125857         0.871248         0.522567
 C        -1.540473         2.116471        -0.292991
 C        -1.298103         3.196958         0.699048
 C        -0.376638         4.286025         0.116740
 O         0.958049         4.173670         0.587665
 C         0.975551         3.000315         1.478416
 C        -0.407457         2.299647         1.647006
 H         0.234921        -0.589459         0.833580
 H        -2.251151         0.096090        -0.269708
 H        -2.940178         1.077052         1.172974
 H        -1.545097         2.127750        -1.410346
 H        -2.204272         3.667952         1.249796
 H        -0.316639         4.154333        -1.017734
 H        -0.731789         5.287006         0.360415
 H         1.875285         2.450822         1.214376
 H         1.449871         3.409304         2.411314
 H        -0.674966         2.171750         2.667527
