19
Iteration:  3167
 O         0.340329         0.329547         0.210218
 C        -0.672423         1.254282         0.647198
 C        -2.193840         1.003311         0.465499
 C        -1.394633         2.003784        -0.326463
 C        -1.390791         3.258382         0.632247
 C        -0.409962         4.382982         0.347712
 O         0.928080         3.807071         0.364783
 C         0.973706         2.963421         1.546748
 C        -0.471283         2.366840         1.638267
 H         0.841860        -0.099979         1.018667
 H        -2.495705         0.118757        -0.085414
 H        -2.805883         1.245297         1.327560
 H        -1.304118         1.943881        -1.401190
 H        -2.366926         3.643488         1.195283
 H        -0.645691         4.786503        -0.600537
 H        -0.531750         5.175526         1.158757
 H         1.684782         2.219858         1.147460
 H         1.327291         3.542269         2.410565
 H        -0.676844         2.214759         2.696480
