19
Iteration:  2481charge 0 multiplicity 1
 O         0.252629         0.254817         0.351709
 C        -0.653281         1.161768         0.584649
 C        -2.085559         0.869274         0.482527
 C        -1.681237         2.236967        -0.154504
 C        -1.317687         3.269443         0.821571
 C        -0.407769         4.297919         0.230117
 O         0.939436         3.790641         0.228345
 C         1.063648         3.137623         1.504088
 C        -0.402856         2.295399         1.552196
 H         1.057073         0.633046         0.179465
 H        -2.328537         0.171660        -0.251433
 H        -2.859880         0.738677         1.192302
 H        -1.949415         2.397411        -1.200966
 H        -2.152724         3.718095         1.581857
 H        -0.562018         4.524225        -0.825198
 H        -0.438101         5.221573         0.800545
 H         2.010362         2.451001         1.478379
 H         1.132812         3.839426         2.370477
 H        -0.558313         2.120556         2.634596
