19
Iteration:  4146charge 0 multiplicity 1
 O         0.170400         0.201851         0.197312
 C        -0.740492         1.136979         0.714321
 C        -2.218616         0.946425         0.441212
 C        -1.566138         2.062284        -0.277489
 C        -1.191970         3.285839         0.622070
 C        -0.243247         4.129306        -0.021213
 O         0.773142         4.320389         0.958701
 C         1.064159         2.998508         1.376754
 C        -0.292211         2.301732         1.590028
 H         0.458174        -0.233681         0.983858
 H        -2.332356         0.141270        -0.268277
 H        -3.071720         0.802812         1.036662
 H        -1.531798         2.041651        -1.353877
 H        -2.007873         3.665347         1.183029
 H         0.138830         3.551708        -1.011221
 H        -0.676314         5.224883        -0.333147
 H         1.714235         2.515769         0.427450
 H         1.604711         3.076821         2.295543
 H        -0.529567         2.314602         2.708894
