19
Iteration:   360
 O         0.264726         0.269000         0.362666
 C        -0.710046         1.163304         0.753390
 C        -2.144947         0.859428         0.323774
 C        -1.609697         2.164283        -0.222170
 C        -1.265841         3.259272         0.859303
 C        -0.455353         4.464102         0.428253
 O         0.932206         3.874061         0.091520
 C         1.038343         3.013358         1.289631
 C        -0.309799         2.310549         1.692348
 H         0.345673        -0.385229         0.975842
 H        -2.202272         0.003320        -0.316158
 H        -2.899314         0.917865         1.074932
 H        -1.521246         2.390656        -1.310616
 H        -2.177967         3.490894         1.470881
 H        -0.924440         4.781524        -0.467786
 H        -0.425946         5.256424         1.165765
 H         1.817322         2.299544         1.171781
 H         1.233326         3.679248         2.064379
 H        -0.297646         2.238433         2.891053
