19
Iteration:   168charge 0 multiplicity 1
 O         0.417248         0.420203         0.218256
 C        -0.623939         1.302245         0.630195
 C        -2.063198         0.878957         0.566812
 C        -1.723845         2.160147        -0.111961
 C        -1.412358         3.323747         0.808704
 C        -0.373836         4.350773         0.232533
 O         0.868540         3.686299         0.182414
 C         1.017677         2.905087         1.491117
 C        -0.405891         2.364629         1.570767
 H         0.633875        -0.183779         0.981857
 H        -2.346522        -0.079192        -0.001284
 H        -2.707286         1.068870         1.497190
 H        -1.781413         2.211245        -1.227394
 H        -2.161745         3.789496         1.397267
 H        -0.726387         4.763220        -0.814377
 H        -0.334585         5.254854         0.808198
 H         1.823727         2.094401         1.252163
 H         1.389057         3.554593         2.266808
 H        -0.725819         2.168123         2.650796
