19
Iteration:  4020charge 0 multiplicity 1
 O         0.260241         0.264874         0.335032
 C        -0.748810         1.118547         0.671478
 C        -2.204329         0.883104         0.388871
 C        -1.523916         2.046577        -0.261494
 C        -1.261753         3.259189         0.656518
 C        -0.316231         4.304562        -0.009987
 O         0.892640         4.269755         0.944928
 C         1.022456         2.918035         1.239307
 C        -0.380737         2.369517         1.591711
 H         0.024329        -0.593086         0.544855
 H        -2.312907        -0.018528        -0.306193
 H        -2.980972         0.963228         1.243529
 H        -1.483372         1.933433        -1.339937
 H        -2.207736         3.609167         1.143087
 H        -0.003782         3.830091        -1.026439
 H        -0.535602         5.343529        -0.011119
 H         1.524458         2.114427         0.544229
 H         1.584444         2.885844         2.259704
 H        -0.486664         2.378147         2.666869
