19
Iteration:  2908charge 0 multiplicity 1
 O         0.291794         0.175991         0.352180
 C        -0.699127         1.192864         0.628244
 C        -2.166884         0.887515         0.462666
 C        -1.607604         2.129616        -0.203994
 C        -1.350774         3.216105         0.772185
 C        -0.348814         4.383843         0.173907
 O         0.996689         3.948087         0.333710
 C         1.031333         3.012922         1.529178
 C        -0.414901         2.376721         1.613364
 H         0.971802         0.434478        -0.400175
 H        -2.195474         0.038398        -0.235661
 H        -3.005923         0.845434         1.169842
 H        -1.990452         2.297207        -1.240359
 H        -2.263895         3.692145         1.359799
 H        -0.629597         4.739179        -0.871847
 H        -0.668242         5.237274         0.834759
 H         1.720136         2.323478         1.214825
 H         1.377881         3.674205         2.344444
 H        -0.637136         2.105807         2.641782
