19
Iteration:   842charge 0 multiplicity 1
 O         0.233992         0.215066         0.106785
 C        -0.645638         1.167713         0.618074
 C        -2.098209         0.849077         0.663212
 C        -1.644218         2.052586        -0.198003
 C        -1.417065         3.256428         0.719970
 C        -0.358680         4.452159         0.264738
 O         1.039157         3.889253         0.282497
 C         1.042294         3.121151         1.494230
 C        -0.367939         2.377036         1.620321
 H         0.386363        -0.404286         0.797561
 H        -2.494409         0.000360         0.023897
 H        -2.804282         1.121957         1.440322
 H        -1.833358         1.920760        -1.225994
 H        -2.230408         3.760290         1.148526
 H        -0.646818         4.784070        -0.728872
 H        -0.514408         5.221246         1.094625
 H         1.886952         2.387296         1.472767
 H         1.018362         3.799899         2.363089
 H        -0.647620         2.197321         2.673128
