19
Iteration:  2292
 O         0.361087         0.229295         0.270353
 C        -0.629134         1.278445         0.603218
 C        -2.122543         0.984196         0.519032
 C        -1.591904         2.139032        -0.296412
 C        -1.390093         3.297840         0.819795
 C        -0.469361         4.414669         0.314271
 O         0.928280         3.774889         0.257542
 C         0.987149         2.992805         1.437251
 C        -0.354118         2.303613         1.598427
 H         0.445950        -0.280124         1.079127
 H        -2.373209         0.121500        -0.021555
 H        -2.745131         1.329374         1.352936
 H        -1.486471         2.246086        -1.407928
 H        -2.427310         3.439824         1.438505
 H        -0.738598         4.574688        -0.729333
 H        -0.452260         5.367652         0.953548
 H         1.821311         2.166623         1.361487
 H         1.235505         3.509025         2.356155
 H        -0.457043         2.301615         2.703673
