19
Iteration:  1850charge 0 multiplicity 1
 O         0.200543         0.267549         0.145739
 C        -0.714249         1.233446         0.635780
 C        -2.133021         0.849666         0.555510
 C        -1.652595         2.087853        -0.159564
 C        -1.298640         3.268561         0.745033
 C        -0.335362         4.305492         0.170830
 O         1.006884         3.959779         0.377153
 C         1.023020         3.078074         1.481953
 C        -0.339089         2.344089         1.651468
 H         0.268136        -0.515202         0.874969
 H        -2.292003         0.091453        -0.270610
 H        -2.820717         0.800177         1.378417
 H        -1.788964         2.190033        -1.251286
 H        -2.174529         3.655440         1.170829
 H        -0.543641         4.401490        -0.866757
 H        -0.474220         5.289927         0.704656
 H         1.789493         2.329641         1.384372
 H         1.325598         3.751462         2.346249
 H        -0.596468         2.140383         2.677217
