19
Iteration:  4564charge 0 multiplicity 1
 O         0.218791         0.111220         0.334140
 C        -0.730092         1.135989         0.620283
 C        -2.169215         0.895732         0.547075
 C        -1.593168         1.994027        -0.354005
 C        -1.233727         3.276155         0.580598
 C        -0.341850         4.404860         0.105148
 O         0.888767         4.266255         0.828068
 C         1.040989         2.927554         1.375433
 C        -0.371920         2.335015         1.506449
 H         1.057603         0.396945         0.618805
 H        -2.386538        -0.065431        -0.060102
 H        -2.876287         0.956048         1.390210
 H        -1.866332         1.870916        -1.434586
 H        -2.142335         3.792032         1.095030
 H        -0.106355         4.405471        -0.992123
 H        -0.633378         5.456824         0.389856
 H         1.670647         2.250139         0.695282
 H         1.702728         2.983596         2.182058
 H        -0.748964         2.062509         2.457146
