19
Iteration:   996charge 0 multiplicity 1
 O         0.276512         0.191107         0.223133
 C        -0.682136         1.145630         0.585131
 C        -2.144435         0.871712         0.478939
 C        -1.646834         2.197840        -0.158453
 C        -1.279841         3.267591         0.869433
 C        -0.454098         4.412733         0.210535
 O         0.952519         3.860565         0.263931
 C         1.049870         3.148753         1.456523
 C        -0.348777         2.286635         1.609158
 H         0.391703        -0.339286         1.007342
 H        -2.196898         0.005005        -0.176158
 H        -2.785531         0.943648         1.441975
 H        -1.765587         2.494320        -1.233859
 H        -2.074192         3.834406         1.391099
 H        -0.703486         4.585759        -0.831263
 H        -0.535819         5.312390         0.809428
 H         2.052363         2.494703         1.466669
 H         1.086256         3.673251         2.434108
 H        -0.448000         1.968064         2.761870
