19
Iteration:  4760charge 0 multiplicity 1
 O         0.325834         0.315046         0.287053
 C        -0.695053         1.168616         0.629235
 C        -2.134622         0.931846         0.631428
 C        -1.615919         2.010632        -0.255395
 C        -1.299076         3.237394         0.495491
 C        -0.283148         4.282216         0.069759
 O         0.908121         4.178579         0.822015
 C         1.004669         2.885294         1.404236
 C        -0.447504         2.341870         1.513091
 H         0.139654        -0.215827        -0.511212
 H        -2.531209        -0.038588         0.254317
 H        -2.589389         0.957633         1.742225
 H        -1.806399         1.812389        -1.306935
 H        -2.155609         3.812583         0.922549
 H        -0.080172         4.321205        -1.024637
 H        -0.724441         5.349652         0.239157
 H         1.549818         2.295858         0.694323
 H         1.429011         3.136991         2.312211
 H        -0.712806         2.161727         2.589656
