19
Iteration:  4900charge 0 multiplicity 1
 O         0.328886         0.272227         0.299277
 C        -0.657697         1.194613         0.584221
 C        -2.096370         0.934895         0.514263
 C        -1.485594         2.067262        -0.300027
 C        -1.406398         3.301354         0.573046
 C        -0.393171         4.414367         0.346918
 O         0.939838         3.885171         0.398212
 C         0.935835         2.993696         1.535344
 C        -0.402917         2.345688         1.529781
 H         0.358698        -0.408706         0.939610
 H        -2.292641         0.053825        -0.001975
 H        -2.711054         1.034767         1.385188
 H        -1.419317         2.071544        -1.370308
 H        -2.232587         3.536469         1.201992
 H        -0.558770         4.801989        -0.698407
 H        -0.639483         5.223853         0.984781
 H         1.638318         2.181290         1.395679
 H         0.912807         3.606581         2.481893
 H        -0.664485         2.134023         2.602763
