19
Iteration:  2241charge 0 multiplicity 1
 O         0.222205         0.261191         0.154368
 C        -0.674847         1.139307         0.696317
 C        -2.143584         0.860667         0.527039
 C        -1.519314         2.035351        -0.165303
 C        -1.323637         3.322657         0.768360
 C        -0.367690         4.378668         0.264096
 O         0.915303         3.897071         0.286178
 C         1.028556         3.099315         1.502067
 C        -0.376109         2.372273         1.560298
 H         0.083580        -0.589234         0.511787
 H        -2.199479        -0.141727         0.061918
 H        -2.793126         1.073260         1.341528
 H        -1.326809         2.193270        -1.278329
 H        -2.144716         3.714643         1.240540
 H        -0.467445         4.836361        -0.719976
 H        -0.582637         5.144719         1.004587
 H         1.799127         2.370355         1.355540
 H         1.233601         3.710106         2.430399
 H        -0.673126         2.430139         2.650827
