19
Iteration:   993charge 0 multiplicity 1
 O         0.286186         0.185719         0.228895
 C        -0.674006         1.140608         0.584736
 C        -2.131716         0.923602         0.482786
 C        -1.622977         2.184163        -0.154949
 C        -1.264819         3.264946         0.874925
 C        -0.476440         4.406485         0.203230
 O         0.941693         3.863912         0.246292
 C         1.043401         3.113762         1.461230
 C        -0.359888         2.292204         1.632853
 H         0.434535        -0.400758         0.960297
 H        -2.212736         0.040843        -0.190172
 H        -2.718238         0.942396         1.358315
 H        -1.785991         2.571725        -1.198300
 H        -2.144790         3.820379         1.410462
 H        -0.764257         4.640008        -0.871256
 H        -0.516660         5.363193         0.794082
 H         1.879519         2.503227         1.450076
 H         1.128852         3.596672         2.446072
 H        -0.497149         1.988012         2.700422
