19
Iteration:  4402charge 0 multiplicity 1
 O         0.133259         0.143646         0.162239
 C        -0.657792         1.125832         0.640038
 C        -2.134392         0.878635         0.477098
 C        -1.494661         2.014286        -0.257336
 C        -1.284864         3.278029         0.662676
 C        -0.293945         4.230661         0.010434
 O         0.865065         4.343130         0.942129
 C         1.048459         2.996462         1.401441
 C        -0.391000         2.378041         1.530702
 H         0.216515        -0.536928         0.797522
 H        -2.476127         0.061878        -0.130243
 H        -2.794982         1.229291         1.166560
 H        -1.602659         1.867676        -1.331984
 H        -2.012650         3.875299         1.082570
 H        -0.043636         3.932058        -1.067349
 H        -0.682169         5.280908        -0.059602
 H         1.688019         2.366194         0.766946
 H         1.552897         2.895389         2.409879
 H        -0.713969         2.205320         2.623600
