19
Iteration:  1102charge 0 multiplicity 1
 O         0.307916         0.379927         0.190046
 C        -0.715559         1.141518         0.677443
 C        -2.134815         0.817447         0.491211
 C        -1.682001         2.172218        -0.120952
 C        -1.334972         3.284112         0.840369
 C        -0.445934         4.383034         0.213776
 O         1.015331         3.754182         0.173891
 C         1.042820         3.041641         1.501200
 C        -0.345187         2.337418         1.672802
 H         0.388213        -0.404314         0.614770
 H        -2.102689         0.112349        -0.287472
 H        -3.015418         0.526656         1.094058
 H        -1.827890         2.523003        -1.184448
 H        -2.020362         3.830805         1.591187
 H        -0.641113         4.809483        -0.830074
 H        -0.373235         5.350381         0.785822
 H         1.946973         2.542558         1.523751
 H         1.090416         3.766856         2.381863
 H        -0.616030         2.435105         2.660013
