19
Iteration:  2069charge 0 multiplicity 1
 O         0.220852         0.328733         0.178946
 C        -0.674969         1.144814         0.753561
 C        -2.116868         0.890805         0.533193
 C        -1.461711         2.101607        -0.155390
 C        -1.314822         3.215578         0.730377
 C        -0.385704         4.357391         0.193668
 O         0.965180         3.995230         0.331683
 C         0.993969         2.902574         1.393573
 C        -0.416238         2.429635         1.677599
 H         0.157871        -0.520618         0.583038
 H        -2.358538         0.049535        -0.117727
 H        -2.869287         0.884573         1.386422
 H        -1.615240         2.043688        -1.253344
 H        -2.249027         3.698227         1.185985
 H        -0.592142         4.695688        -0.835453
 H        -0.521966         5.268445         0.818596
 H         1.629570         2.107789         1.078164
 H         1.366524         3.469773         2.313894
 H        -0.792422         2.390639         2.640104
