19
Iteration:   372charge 0 multiplicity 1
 O         0.258233         0.287143         0.316478
 C        -0.682189         1.242415         0.707856
 C        -2.116739         0.937451         0.427085
 C        -1.476914         2.122543        -0.215776
 C        -1.363680         3.235417         0.925014
 C        -0.450511         4.366130         0.355660
 O         0.847651         3.858273         0.162188
 C         1.072971         2.982954         1.310100
 C        -0.317694         2.364892         1.606607
 H         0.159157        -0.535479         0.971831
 H        -2.064422         0.064889        -0.173251
 H        -3.037406         0.978954         1.014185
 H        -1.472384         2.286932        -1.272751
 H        -2.291494         3.702187         1.419715
 H        -0.751434         4.844595        -0.533127
 H        -0.337392         5.187239         1.089893
 H         1.879104         2.274786         1.008108
 H         1.382019         3.524264         2.163297
 H        -0.533740         2.098288         2.738735
