19
Iteration:  4266
 O         0.245313         0.089740         0.492551
 C        -0.696714         1.121287         0.574311
 C        -2.109914         0.970703         0.326216
 C        -1.554669         2.185017        -0.313571
 C        -1.316947         3.215364         0.737881
 C        -0.320943         4.247661         0.053827
 O         0.824350         4.349282         0.864617
 C         1.092875         2.924907         1.330076
 C        -0.324740         2.296868         1.504400
 H        -0.235873        -0.700911         0.060364
 H        -2.480102         0.073862        -0.257799
 H        -2.842572         1.171655         1.189083
 H        -1.950637         2.393025        -1.321358
 H        -2.100192         3.644405         1.386339
 H        -0.194754         3.937033        -0.960706
 H        -0.686081         5.319269        -0.160014
 H         1.704158         2.366852         0.612036
 H         1.709374         3.006410         2.169009
 H        -0.652076         2.010174         2.529955
