19
Iteration:  1852charge 0 multiplicity 1
 O         0.212257         0.268197         0.132371
 C        -0.725941         1.221602         0.633695
 C        -2.128283         0.853453         0.565963
 C        -1.638406         2.077669        -0.169578
 C        -1.287140         3.278101         0.750060
 C        -0.345730         4.302746         0.155645
 O         1.004176         3.954808         0.375744
 C         1.003762         3.077387         1.488423
 C        -0.334579         2.339572         1.683797
 H         0.206437        -0.461712         0.860890
 H        -2.293282         0.179680        -0.274709
 H        -2.812829         0.890219         1.377893
 H        -1.785065         2.225341        -1.232814
 H        -2.210103         3.677585         1.143475
 H        -0.548971         4.446493        -0.892581
 H        -0.476299         5.250069         0.700128
 H         1.877075         2.297091         1.296934
 H         1.337992         3.772490         2.321172
 H        -0.669199         2.124597         2.760546
