19
Iteration:  2140charge 0 multiplicity 1
 O         0.299225         0.351689         0.141838
 C        -0.647385         1.204915         0.703930
 C        -2.131330         0.959801         0.502751
 C        -1.469359         2.082767        -0.186265
 C        -1.345350         3.348737         0.780303
 C        -0.413422         4.377694         0.213873
 O         0.848213         3.719566         0.192509
 C         1.003500         3.011893         1.583277
 C        -0.374813         2.345996         1.697580
 H         0.398970        -0.398266         0.751279
 H        -2.324365         0.108661        -0.073006
 H        -2.813920         0.988378         1.330693
 H        -1.607727         2.287533        -1.235991
 H        -2.304258         3.442534         1.266103
 H        -0.558953         4.787895        -0.785707
 H        -0.443274         5.258699         0.855963
 H         1.914764         2.321424         1.278867
 H         1.179029         3.743241         2.386456
 H        -0.650653         2.110488         2.810975
