19
Iteration:  2859
 O         0.285401         0.212722         0.181412
 C        -0.594583         1.224241         0.625568
 C        -2.167699         1.050855         0.498686
 C        -1.542823         2.089559        -0.262598
 C        -1.290997         3.193210         0.706334
 C        -0.459928         4.314540         0.361037
 O         0.926242         3.723962         0.250574
 C         0.952151         3.154774         1.527790
 C        -0.351227         2.387201         1.698368
 H         1.043103         0.094895         0.680328
 H        -2.598375         0.158771         0.016558
 H        -2.835097         1.350011         1.325628
 H        -1.629668         2.050052        -1.329083
 H        -2.159628         3.581173         1.085856
 H        -0.778061         4.683086        -0.587193
 H        -0.616663         5.114336         1.053928
 H         1.916971         2.452508         1.541692
 H         1.041917         3.975297         2.159556
 H        -0.697118         2.342552         2.759876
