19
Iteration:   742charge 0 multiplicity 1
 O         0.394638         0.330000         0.155813
 C        -0.567559         1.234042         0.564967
 C        -2.068998         0.922104         0.612052
 C        -1.634458         2.152002        -0.151078
 C        -1.351177         3.338099         0.810914
 C        -0.377251         4.351986         0.229632
 O         0.882628         3.650815         0.244111
 C         0.908747         3.031740         1.472997
 C        -0.417996         2.378557         1.651344
 H         0.173397        -0.633658         0.372667
 H        -2.514074         0.119442         0.122402
 H        -2.627371         1.347309         1.419015
 H        -1.843283         2.294223        -1.251740
 H        -2.097018         3.773416         1.454609
 H        -0.655608         4.754552        -0.785408
 H        -0.301910         5.233831         0.964902
 H         1.788913         2.340011         1.532267
 H         1.153913         3.769474         2.302576
 H        -0.792716         2.173256         2.660081
