19
Iteration:  4264
 O         0.240647         0.088151         0.492224
 C        -0.693190         1.120548         0.571411
 C        -2.110244         0.979002         0.327411
 C        -1.553285         2.171893        -0.301513
 C        -1.315114         3.224152         0.742403
 C        -0.319713         4.264886         0.047085
 O         0.814425         4.346333         0.854665
 C         1.104202         2.920491         1.346659
 C        -0.331673         2.291558         1.490783
 H        -0.232714        -0.720140         0.044351
 H        -2.444112         0.075712        -0.299059
 H        -2.873251         1.135649         1.239739
 H        -1.894248         2.436418        -1.311526
 H        -2.182319         3.624176         1.403535
 H        -0.214653         3.883219        -0.986852
 H        -0.610171         5.301717        -0.125462
 H         1.668329         2.381180         0.595473
 H         1.747535         3.062450         2.235933
 H        -0.604953         1.985670         2.481672
