19
Iteration:  4353
 O         0.187327         0.071983         0.306368
 C        -0.736380         1.142085         0.541837
 C        -2.242616         0.946158         0.518339
 C        -1.480980         2.103231        -0.342763
 C        -1.236095         3.200618         0.583070
 C        -0.314124         4.333644         0.123047
 O         0.794372         4.309841         0.961364
 C         1.101238         2.965647         1.340219
 C        -0.315482         2.317550         1.438015
 H         0.600208        -0.176721         1.229193
 H        -2.500744         0.014411        -0.101627
 H        -2.887213         1.070599         1.536614
 H        -1.347580         2.043900        -1.434969
 H        -2.235259         3.604361         1.061761
 H         0.056154         4.027744        -0.936681
 H        -0.755623         5.404591         0.062464
 H         1.737380         2.473985         0.581533
 H         1.522942         2.910714         2.327322
 H        -0.601565         2.194568         2.476481
