19
Iteration:  3227charge 0 multiplicity 1
 O         0.302631         0.258683         0.298893
 C        -0.643332         1.176862         0.640244
 C        -2.192023         0.907084         0.369323
 C        -1.560842         2.134179        -0.284105
 C        -1.268902         3.250024         0.736410
 C        -0.410649         4.336895         0.185600
 O         0.936452         3.970808         0.414265
 C         0.981941         3.045259         1.576583
 C        -0.362384         2.305630         1.628262
 H        -0.038871        -0.681018         0.273035
 H        -2.309321        -0.023974        -0.220107
 H        -2.965989         0.980024         1.157721
 H        -1.524535         2.170436        -1.395281
 H        -1.986720         3.666724         1.382168
 H        -0.722692         4.571997        -0.903083
 H        -0.619614         5.302036         0.704615
 H         2.068994         2.593156         1.644626
 H         1.017654         3.594045         2.504848
 H        -0.654159         2.061096         2.704476
