19
Iteration:  2765
 O         0.336901         0.152921         0.340402
 C        -0.644869         1.171504         0.621324
 C        -2.203109         0.976989         0.553262
 C        -1.540086         2.057544        -0.198017
 C        -1.316559         3.270088         0.706865
 C        -0.458317         4.375158         0.276695
 O         0.957477         3.890165         0.292264
 C         0.982892         3.066012         1.483109
 C        -0.348023         2.369637         1.566846
 H         0.408539         0.271509        -0.693914
 H        -2.604918         0.124318         0.029416
 H        -2.677021         1.150613         1.490121
 H        -1.763324         2.166070        -1.240907
 H        -2.276454         3.708005         1.218474
 H        -0.663310         4.687333        -0.779765
 H        -0.466582         5.294370         0.857119
 H         1.746248         2.426431         1.398506
 H         1.017274         3.750071         2.361910
 H        -0.476892         2.053689         2.609784
