19
Iteration:  2894
 O         0.200406         0.138724         0.277085
 C        -0.623501         1.160883         0.671948
 C        -2.076466         0.872703         0.484153
 C        -1.605389         2.139764        -0.223704
 C        -1.287894         3.332109         0.734388
 C        -0.429399         4.401897         0.254074
 O         0.935083         3.875070         0.327605
 C         0.933403         3.054368         1.467981
 C        -0.357388         2.354555         1.625030
 H         0.969500         0.594243         0.050155
 H        -2.257648         0.131994        -0.249259
 H        -2.660951         0.984043         1.368085
 H        -1.473814         2.190247        -1.318687
 H        -2.150292         3.733352         1.190880
 H        -0.510930         4.518250        -0.764383
 H        -0.418585         5.334864         0.803692
 H         1.905542         2.390233         1.509253
 H         1.074240         3.572997         2.387458
 H        -0.681811         2.297428         2.672511
