19
Iteration:  2286charge 0 multiplicity 1
 O         0.336683         0.222535         0.263108
 C        -0.666441         1.239292         0.628280
 C        -2.130837         0.977210         0.520094
 C        -1.543817         2.185670        -0.284443
 C        -1.365661         3.253029         0.831153
 C        -0.487924         4.396361         0.264134
 O         0.899394         3.770114         0.289120
 C         1.020835         3.010190         1.444429
 C        -0.333078         2.355193         1.581840
 H         0.540809        -0.288452         1.030525
 H        -2.411768         0.045611        -0.068484
 H        -2.784286         1.340744         1.313766
 H        -1.383241         2.397391        -1.335163
 H        -2.154401         3.546563         1.395196
 H        -0.867652         4.661334        -0.738097
 H        -0.480496         5.277582         0.887802
 H         1.772816         2.304987         1.341307
 H         1.235074         3.643950         2.375167
 H        -0.549870         1.954042         2.618645
