19
Iteration:  1727
 O         0.366273         0.312129         0.379401
 C        -0.692016         1.237649         0.563220
 C        -2.084988         0.974159         0.441954
 C        -1.505954         2.212609        -0.202667
 C        -1.318639         3.306794         0.845527
 C        -0.435034         4.360791         0.300328
 O         0.811902         3.703112         0.242805
 C         1.017332         2.953615         1.395934
 C        -0.358445         2.340296         1.590591
 H         0.011241        -0.492666         0.811105
 H        -2.465018         0.238326        -0.264236
 H        -2.827490         1.141542         1.381016
 H        -1.720678         2.540363        -1.256358
 H        -2.214213         3.628190         1.434184
 H        -0.525125         4.718604        -0.780064
 H        -0.573263         5.207950         0.973303
 H         1.852995         2.338597         1.089348
 H         1.342657         3.584690         2.351233
 H        -0.584338         1.989338         2.573299
