19
Iteration:  2678
 O         0.296189         0.356261         0.318086
 C        -0.675492         1.192589         0.655810
 C        -2.067437         0.901648         0.588970
 C        -1.610474         2.089731        -0.153507
 C        -1.397080         3.292938         0.768364
 C        -0.365853         4.356454         0.193377
 O         0.973986         3.836868         0.278629
 C         0.968100         2.956080         1.408154
 C        -0.433119         2.320900         1.586746
 H         1.077657         0.839079         0.148799
 H        -2.269156         0.048083        -0.085302
 H        -2.781170         1.032899         1.353834
 H        -1.751378         2.286881        -1.214810
 H        -2.328028         3.655329         1.281471
 H        -0.581422         4.502430        -0.902289
 H        -0.576335         5.277701         0.717067
 H         1.929723         2.250273         1.124343
 H         1.256828         3.476938         2.331758
 H        -0.714059         1.985362         2.615752
