19
Iteration:  1456charge 0 multiplicity 1
 O         0.239621         0.120316         0.308221
 C        -0.655580         1.179070         0.588300
 C        -2.154541         0.976305         0.553311
 C        -1.624299         2.140737        -0.288006
 C        -1.326962         3.262704         0.754240
 C        -0.441072         4.353589         0.325957
 O         0.926303         3.976429         0.344243
 C         1.082352         3.054163         1.394667
 C        -0.307723         2.314932         1.482239
 H         0.517565        -0.327569         1.226862
 H        -2.383991         0.047004         0.035182
 H        -2.785715         1.215547         1.330776
 H        -1.890603         2.324823        -1.310942
 H        -2.176664         3.552615         1.436269
 H        -0.565661         4.742239        -0.668673
 H        -0.485072         5.172252         1.026651
 H         1.996952         2.480320         1.251855
 H         1.249270         3.468159         2.360792
 H        -0.388090         2.169963         2.623469
