19
Iteration:  3354
 O         0.215850         0.206328         0.186886
 C        -0.611009         1.226760         0.656404
 C        -2.091737         0.908604         0.398415
 C        -1.502597         2.111608        -0.233792
 C        -1.337644         3.199967         0.819877
 C        -0.377339         4.334950         0.151316
 O         0.928029         3.767307         0.326855
 C         0.927482         3.180229         1.614701
 C        -0.401516         2.367280         1.723841
 H         1.177929         0.601421         0.144951
 H        -2.286816        -0.022747        -0.160681
 H        -2.982904         1.098886         0.985814
 H        -1.621045         2.244482        -1.325533
 H        -2.192196         3.719816         1.276239
 H        -0.438781         4.597773        -0.887202
 H        -0.528984         5.212291         0.879413
 H         1.733507         2.565622         1.654227
 H         0.764877         4.007479         2.339096
 H        -0.586455         2.203754         2.794149
