19
Iteration:  3291charge 0 multiplicity 1
 O         0.374159         0.369337         0.394476
 C        -0.731911         1.202395         0.593866
 C        -2.150114         0.843000         0.501391
 C        -1.532988         2.008452        -0.296985
 C        -1.368273         3.317568         0.684241
 C        -0.337312         4.373382         0.338413
 O         0.981377         3.853178         0.337201
 C         0.951161         2.977118         1.484577
 C        -0.468992         2.348596         1.543432
 H         0.541025         0.278804        -0.639482
 H        -2.423340        -0.030567        -0.122019
 H        -2.675600         1.141549         1.404914
 H        -1.758634         2.049269        -1.376259
 H        -2.385682         3.867906         1.049996
 H        -0.474130         4.954777        -0.572321
 H        -0.413012         4.983648         1.280477
 H         1.988559         2.343201         1.612229
 H         0.894652         3.699876         2.353462
 H        -0.706037         2.074695         2.608359
