19
Iteration:  2843charge 0 multiplicity 1
 O         0.308842         0.286807         0.215381
 C        -0.704995         1.167231         0.640922
 C        -2.163119         0.929607         0.544106
 C        -1.520301         2.116680        -0.246161
 C        -1.371578         3.270997         0.772611
 C        -0.385007         4.350782         0.260178
 O         0.895326         3.793530         0.258004
 C         1.022024         3.075828         1.510123
 C        -0.384127         2.307946         1.581861
 H         0.830546         0.188066         1.067211
 H        -2.351694         0.064374        -0.086453
 H        -2.822440         1.184824         1.404838
 H        -1.445034         2.309813        -1.336894
 H        -2.365909         3.629450         1.317883
 H        -0.473380         4.835497        -0.795291
 H        -0.279239         5.214792         1.004759
 H         1.916973         2.563144         1.457676
 H         1.063310         3.807952         2.483954
 H        -0.647507         2.051832         2.623184
