19
Iteration:  3794charge 0 multiplicity 1
 O         0.083758         0.035100         0.357848
 C        -0.715729         1.204685         0.534095
 C        -2.172104         0.928911         0.448446
 C        -1.554878         2.061376        -0.359300
 C        -1.236230         3.239586         0.712494
 C        -0.290369         4.241291         0.021895
 O         0.864575         4.336226         0.855674
 C         1.106053         3.081197         1.490285
 C        -0.297665         2.216792         1.521556
 H         0.645417         0.178060        -0.516385
 H        -2.314280        -0.068731         0.046569
 H        -2.827688         1.221826         1.286403
 H        -1.909996         2.159384        -1.375459
 H        -2.224145         3.583436         1.264042
 H         0.019181         3.835123        -0.895389
 H        -0.747435         5.294898        -0.094771
 H         1.801837         2.599844         0.814304
 H         1.420606         3.279027         2.519721
 H        -0.502022         2.070109         2.615147
