19
Iteration:  3697charge 0 multiplicity 1
 O         0.220281         0.155130         0.281221
 C        -0.693656         1.100050         0.617347
 C        -2.134799         0.927101         0.514947
 C        -1.596732         2.052807        -0.205031
 C        -1.221748         3.292922         0.662005
 C        -0.285894         4.178729        -0.036744
 O         0.851658         4.338105         0.923864
 C         1.001609         3.012745         1.339086
 C        -0.382400         2.333426         1.508135
 H        -0.266328        -0.657517         0.047563
 H        -2.431115         0.271655        -0.256334
 H        -2.586535         0.902027         1.448140
 H        -1.593318         2.065879        -1.285513
 H        -1.915600         3.878992         1.207323
 H         0.108035         3.736150        -1.013528
 H        -0.624211         5.293856        -0.061553
 H         1.594210         2.326362         0.552990
 H         1.693032         3.122250         2.252499
 H        -0.759195         2.184543         2.545775
