19
Iteration:  4339
 O         0.208853         0.116016         0.282589
 C        -0.681209         1.122065         0.612524
 C        -2.151414         0.942682         0.537777
 C        -1.539133         1.931370        -0.415054
 C        -1.274303         3.271544         0.527757
 C        -0.283841         4.382971         0.099598
 O         0.877667         4.320759         1.051786
 C         0.998776         2.914357         1.276465
 C        -0.382170         2.328535         1.512432
 H         0.461205        -0.298038         1.101946
 H        -2.587123         0.006218         0.104240
 H        -2.821417         1.478186         1.243630
 H        -1.878449         1.995652        -1.452046
 H        -2.223528         3.687034         0.988940
 H         0.030549         4.371504        -0.982500
 H        -0.688298         5.343521         0.192945
 H         1.530765         2.392400         0.451916
 H         1.791061         2.845195         2.134756
 H        -0.631113         2.249462         2.559413
