19
Iteration:  1534charge 0 multiplicity 1
 O         0.356200         0.425126         0.292554
 C        -0.699001         1.270710         0.655190
 C        -2.141221         0.891874         0.435810
 C        -1.608219         2.207542        -0.173310
 C        -1.335176         3.284742         0.891565
 C        -0.397243         4.301778         0.278695
 O         0.868966         3.680374         0.215925
 C         1.058335         3.026520         1.428161
 C        -0.379368         2.316274         1.617533
 H         0.063795        -0.478182         0.507105
 H        -2.084800         0.059013        -0.223512
 H        -2.950028         0.854139         1.074093
 H        -1.481930         2.456687        -1.242183
 H        -2.253838         3.711219         1.384452
 H        -0.623729         4.489615        -0.700650
 H        -0.273672         5.271382         0.754940
 H         1.848203         2.288918         1.238462
 H         1.241303         3.687150         2.248480
 H        -0.455086         2.152697         2.708476
