19
Iteration:  4761
 O         0.330479         0.317213         0.288001
 C        -0.700178         1.163855         0.632991
 C        -2.140938         0.930476         0.634813
 C        -1.620325         2.010795        -0.260641
 C        -1.297217         3.241788         0.481865
 C        -0.293730         4.285073         0.085980
 O         0.910096         4.176595         0.814740
 C         1.010673         2.882993         1.418310
 C        -0.446621         2.340199         1.506337
 H         0.110756        -0.237050        -0.536815
 H        -2.501205        -0.024526         0.250206
 H        -2.595497         0.948448         1.744464
 H        -1.796571         1.800307        -1.290162
 H        -2.174771         3.845311         0.916668
 H        -0.061582         4.278373        -1.025689
 H        -0.713589         5.363288         0.242030
 H         1.560037         2.320891         0.686355
 H         1.470673         3.176377         2.328614
 H        -0.674162         2.151313         2.555722
