19
Iteration:  2304
 O         0.354586         0.311659         0.294804
 C        -0.612605         1.218367         0.551421
 C        -2.115324         0.956837         0.534989
 C        -1.563503         2.097417        -0.223634
 C        -1.370150         3.281356         0.739729
 C        -0.365262         4.390743         0.359124
 O         0.902358         3.831895         0.231447
 C         0.965744         2.931484         1.411754
 C        -0.416644         2.361805         1.655726
 H         0.228707        -0.336004         0.969270
 H        -2.360797         0.097348        -0.060364
 H        -2.712199         0.975728         1.404476
 H        -1.940898         2.077613        -1.282731
 H        -2.382548         3.779092         1.159581
 H        -0.494811         4.890602        -0.599181
 H        -0.383574         5.288041         1.114339
 H         1.783061         2.179492         1.120197
 H         1.258408         3.596087         2.213240
 H        -0.757299         2.072592         2.674356
