19
Iteration:   690charge 0 multiplicity 1
 O         0.230653         0.266957         0.158351
 C        -0.742595         1.190296         0.760483
 C        -2.114047         0.835196         0.548891
 C        -1.573352         2.107839        -0.187310
 C        -1.352782         3.287282         0.762472
 C        -0.405593         4.406663         0.284021
 O         0.941686         3.899385         0.271879
 C         1.061447         2.992731         1.388168
 C        -0.329502         2.441815         1.667924
 H         0.359308        -0.493867         0.638770
 H        -1.969413         0.029809        -0.169727
 H        -2.992071         0.811793         1.309927
 H        -1.474543         2.152450        -1.261629
 H        -2.283611         3.541162         1.262950
 H        -0.647683         4.703451        -0.712414
 H        -0.476493         5.257107         0.922039
 H         1.808931         2.114821         1.054030
 H         1.635639         3.389780         2.181630
 H        -0.633093         2.468610         2.681735
