19
Iteration:  2930
 O         0.375853         0.383526         0.391766
 C        -0.734434         1.213989         0.629970
 C        -2.177155         0.923007         0.493171
 C        -1.634223         2.052995        -0.270074
 C        -1.318742         3.268182         0.715384
 C        -0.380598         4.327584         0.235733
 O         0.960532         3.936417         0.410900
 C         1.030014         2.916050         1.454878
 C        -0.367567         2.317285         1.556437
 H         0.342017        -0.050439        -0.407356
 H        -2.580909         0.066408        -0.070030
 H        -2.759129         0.890305         1.409286
 H        -1.605883         2.225925        -1.376343
 H        -2.243086         3.727253         1.314979
 H        -0.695532         4.517875        -0.850741
 H        -0.518719         5.361591         0.639240
 H         1.694545         2.184735         1.142085
 H         1.121092         3.359489         2.447189
 H        -0.526620         2.146199         2.622631
