19
Iteration:   775
 O         0.274853         0.508861         0.075024
 C        -0.729179         1.178948         0.793607
 C        -2.133067         0.779852         0.510219
 C        -1.676438         2.044103        -0.096712
 C        -1.321915         3.319232         0.773189
 C        -0.378264         4.290143         0.158144
 O         0.996655         3.765416         0.280927
 C         1.059103         3.040896         1.477160
 C        -0.356506         2.424312         1.705554
 H         0.310215        -0.445833         0.500233
 H        -2.268791        -0.004604        -0.157879
 H        -2.967622         0.876029         1.166365
 H        -1.591715         2.120733        -1.174352
 H        -2.155075         3.704493         1.295557
 H        -0.435382         4.574517        -0.915384
 H        -0.495933         5.217815         0.817108
 H         1.822937         2.279414         1.316330
 H         1.206607         3.713188         2.350129
 H        -0.721007         2.422656         2.738213
