19
Iteration:  2246
 O         0.220930         0.255497         0.144807
 C        -0.675134         1.086297         0.716747
 C        -2.145598         0.867243         0.502587
 C        -1.523489         2.049149        -0.189117
 C        -1.322515         3.316374         0.817396
 C        -0.429822         4.399088         0.251741
 O         0.966297         3.899020         0.267143
 C         1.007843         3.100165         1.493601
 C        -0.383368         2.408758         1.574258
 H         0.165727        -0.653576         0.606799
 H        -2.185624        -0.183921         0.139296
 H        -2.967583         1.126881         1.260576
 H        -1.165134         2.242197        -1.156013
 H        -2.297118         3.722896         1.357754
 H        -0.359582         4.789102        -0.798258
 H        -0.497914         5.216860         1.037917
 H         1.889031         2.384714         1.451108
 H         1.241163         3.734579         2.342133
 H        -0.545734         2.197146         2.640555
