19
Iteration:  3754
 O         0.235297         0.219070         0.172449
 C        -0.725110         1.109487         0.639819
 C        -2.211949         0.890890         0.642216
 C        -1.535838         2.004324        -0.273912
 C        -1.242706         3.308014         0.538239
 C        -0.213479         4.346683        -0.021251
 O         0.848271         4.235885         0.920918
 C         0.958354         2.858102         1.387508
 C        -0.405096         2.335223         1.570598
 H         1.025582         0.328886         0.664111
 H        -2.491011        -0.045449         0.170089
 H        -2.794096         1.079354         1.496326
 H        -1.829370         2.057170        -1.342861
 H        -1.998456         3.882189         0.934930
 H         0.110396         4.161719        -1.126858
 H        -0.505196         5.407296        -0.022009
 H         1.482430         2.229066         0.562838
 H         1.582430         3.026455         2.323920
 H        -0.807086         2.142048         2.555565
