19
Iteration:  1095
 O         0.302392         0.420638         0.201688
 C        -0.726843         1.229540         0.637503
 C        -2.192624         0.782047         0.478303
 C        -1.709199         2.114479        -0.089354
 C        -1.341193         3.284752         0.835588
 C        -0.427527         4.354658         0.198790
 O         1.057960         3.780141         0.228246
 C         1.064279         3.088520         1.461288
 C        -0.296644         2.344315         1.635733
 H         0.295602        -0.388648         0.755131
 H        -2.055174         0.025151        -0.353129
 H        -3.066418         0.625849         1.228780
 H        -1.905122         2.332407        -1.101139
 H        -2.151205         3.645131         1.569603
 H        -0.541988         4.572219        -0.838582
 H        -0.368991         5.220285         0.901436
 H         1.926087         2.257477         1.462665
 H         0.968676         3.770533         2.331187
 H        -0.693531         2.124883         2.752023
