19
Iteration:  3308charge 0 multiplicity 1
 O         0.445255         0.399748         0.426423
 C        -0.685766         1.203611         0.602875
 C        -2.168644         0.880910         0.497862
 C        -1.691392         2.088679        -0.313641
 C        -1.362883         3.233532         0.640004
 C        -0.358728         4.396948         0.315779
 O         1.002224         3.840030         0.342847
 C         0.954823         2.912334         1.479556
 C        -0.475504         2.369657         1.620434
 H         0.967809         0.692546        -0.433539
 H        -2.359340        -0.029614        -0.071588
 H        -2.952874         0.936149         1.269437
 H        -1.567726         2.161565        -1.397549
 H        -2.185401         3.521566         1.209292
 H        -0.533847         4.732587        -0.726242
 H        -0.307556         5.224294         1.060647
 H         1.455678         2.121984         1.152598
 H         1.276150         3.411222         2.404533
 H        -0.881118         2.136179         2.607320
