19
Iteration:   737charge 0 multiplicity 1
 O         0.432466         0.304444         0.171100
 C        -0.556512         1.195056         0.575799
 C        -2.088608         1.010116         0.599071
 C        -1.656893         2.157150        -0.162533
 C        -1.353393         3.308033         0.786925
 C        -0.408690         4.372122         0.260675
 O         0.868914         3.647064         0.241418
 C         0.935128         3.015305         1.498604
 C        -0.415770         2.375750         1.603876
 H         0.370955        -0.612667         0.367108
 H        -2.669794         0.205429         0.030014
 H        -2.576300         1.368691         1.548590
 H        -1.943846         2.207887        -1.197159
 H        -2.040265         3.878781         1.506959
 H        -0.740546         4.688099        -0.724441
 H        -0.274011         5.240249         0.891796
 H         1.830500         2.392524         1.565765
 H         1.147100         3.785243         2.258740
 H        -0.772809         2.184930         2.682630
