19
Iteration:  4260
 O         0.224420         0.077401         0.482283
 C        -0.668794         1.125583         0.561422
 C        -2.146262         0.981036         0.357278
 C        -1.560205         2.143376        -0.284916
 C        -1.307464         3.259603         0.751760
 C        -0.326800         4.298588         0.033530
 O         0.801202         4.323938         0.835612
 C         1.119880         2.928206         1.383413
 C        -0.342005         2.274268         1.461211
 H        -0.140844        -0.641727         0.076860
 H        -2.297824         0.206112        -0.351012
 H        -2.817196         0.994013         1.180157
 H        -1.694978         2.509240        -1.311622
 H        -2.237343         3.532014         1.301005
 H        -0.170984         3.756800        -1.005975
 H        -0.534124         5.356351        -0.010718
 H         1.621219         2.404754         0.521068
 H         1.742365         3.155835         2.345352
 H        -0.492848         1.964417         2.522728
