19
Iteration:  3459
 O         0.242956         0.162126         0.357483
 C        -0.661997         1.187292         0.661067
 C        -2.183185         0.842167         0.362905
 C        -1.592191         2.108306        -0.195831
 C        -1.315088         3.282706         0.742332
 C        -0.381002         4.332713         0.022583
 O         0.909050         4.120272         0.609001
 C         1.030532         2.929979         1.439372
 C        -0.359643         2.358918         1.624103
 H         1.101710         0.594191         0.120356
 H        -2.371868        -0.024548        -0.322010
 H        -2.708465         1.029950         1.272212
 H        -1.779204         2.369667        -1.271156
 H        -2.157122         3.794202         1.326856
 H        -0.263608         4.174395        -1.095991
 H        -0.651534         5.332187         0.142836
 H         1.667468         2.193782         1.008510
 H         1.523899         3.067022         2.298994
 H        -0.638277         2.220519         2.684285
