19
Iteration:   703charge 0 multiplicity 1
 O         0.266575         0.374574         0.216231
 C        -0.636498         1.212969         0.685830
 C        -2.136258         0.900055         0.517074
 C        -1.634060         2.050435        -0.213003
 C        -1.298763         3.258256         0.831422
 C        -0.404138         4.385388         0.295616
 O         0.947547         3.861226         0.243104
 C         1.038760         2.982354         1.396950
 C        -0.375386         2.352379         1.597532
 H         0.231255        -0.449532         0.860229
 H        -2.547493        -0.004377        -0.018473
 H        -2.769499         1.087623         1.443723
 H        -1.583789         2.033141        -1.253609
 H        -2.140046         3.770939         1.414013
 H        -0.652825         4.659931        -0.709357
 H        -0.450041         5.279847         0.936833
 H         1.824045         2.189488         1.156311
 H         1.110362         3.616398         2.262922
 H        -0.478355         2.118905         2.701944
