19
Iteration:   291
 O         0.304959         0.271594         0.141256
 C        -0.676274         1.128737         0.713005
 C        -2.185613         0.932842         0.640196
 C        -1.539664         2.024768        -0.230482
 C        -1.376655         3.231577         0.745131
 C        -0.464382         4.466404         0.293087
 O         0.977062         3.926594         0.299179
 C         1.031819         3.019888         1.393303
 C        -0.311740         2.393913         1.643133
 H         0.126190        -0.725886         0.433087
 H        -2.487681         0.016858         0.103944
 H        -2.873576         1.216430         1.456551
 H        -1.621195         2.019652        -1.343991
 H        -2.267679         3.573987         1.187219
 H        -0.508541         4.650751        -0.832585
 H        -0.488440         5.382202         0.826788
 H         1.748098         2.232926         1.168269
 H         1.220044         3.526152         2.306454
 H        -0.473795         2.335518         2.764579
