19
Iteration:  3050charge 0 multiplicity 1
 O         0.325557         0.340409         0.327634
 C        -0.632846         1.258771         0.631734
 C        -2.121833         0.827048         0.545425
 C        -1.605993         2.071471        -0.295595
 C        -1.380811         3.294058         0.649367
 C        -0.406811         4.392400         0.294544
 O         1.020315         3.852257         0.403631
 C         0.988207         2.912114         1.508254
 C        -0.479487         2.447453         1.570005
 H         0.431531         0.157260        -0.696662
 H        -2.233368        -0.127631         0.010639
 H        -2.964017         0.952375         1.246551
 H        -1.547175         2.174775        -1.360610
 H        -2.249905         3.635733         1.144747
 H        -0.427049         4.820243        -0.728515
 H        -0.413508         5.203146         1.029759
 H         1.719752         2.011521         1.158495
 H         1.197893         3.283905         2.551688
 H        -0.759317         2.143137         2.596828
