19
Iteration:  2928
 O         0.371661         0.371594         0.410108
 C        -0.731748         1.217258         0.607033
 C        -2.188281         0.894763         0.486257
 C        -1.646384         2.056719        -0.266960
 C        -1.339576         3.279620         0.726164
 C        -0.390993         4.322284         0.239944
 O         0.973801         3.938496         0.411278
 C         1.055744         2.955737         1.442703
 C        -0.371642         2.306637         1.568735
 H         0.362401         0.027235        -0.488516
 H        -2.602318         0.077067        -0.062676
 H        -2.788369         0.924548         1.364402
 H        -1.594541         2.255674        -1.368373
 H        -2.198113         3.711577         1.249872
 H        -0.612454         4.492583        -0.795384
 H        -0.478107         5.336825         0.618948
 H         1.792530         2.121505         1.144846
 H         1.128222         3.338069         2.419754
 H        -0.565983         2.134730         2.629419
