19
Iteration:  3502
 O         0.161724        -0.000866         0.298934
 C        -0.677644         1.089798         0.588292
 C        -2.245751         0.945132         0.618563
 C        -1.523035         1.972331        -0.343986
 C        -1.191145         3.244452         0.601389
 C        -0.385326         4.433118         0.102291
 O         0.898690         4.266634         0.717542
 C         1.059498         3.026593         1.457684
 C        -0.320785         2.335559         1.523986
 H         0.940490         0.330846        -0.055473
 H        -2.544431         0.000345         0.127821
 H        -2.871024         1.236322         1.429460
 H        -1.763371         1.927383        -1.437615
 H        -2.204921         3.548725         1.064014
 H        -0.391771         4.426363        -1.002138
 H        -0.821429         5.351078         0.428902
 H         1.921926         2.508606         1.102265
 H         1.411959         3.381613         2.437009
 H        -0.626230         2.245649         2.567761
