19
Iteration:  3812charge 0 multiplicity 1
 O         0.146091         0.008858         0.340333
 C        -0.628524         1.091017         0.585242
 C        -2.235318         0.994007         0.471766
 C        -1.574208         2.122264        -0.293935
 C        -1.219081         3.184345         0.629240
 C        -0.318703         4.231231         0.030227
 O         0.792641         4.357175         0.892937
 C         1.072421         3.034474         1.454049
 C        -0.239659         2.338829         1.502869
 H         0.263019        -0.224674        -0.675969
 H        -2.582541         0.182992        -0.221893
 H        -2.981508         1.160885         1.405527
 H        -1.378743         2.290993        -1.366052
 H        -2.003536         3.818846         1.103823
 H         0.076511         3.889205        -1.028384
 H        -0.845388         5.147383         0.034056
 H         1.902646         2.381607         0.929362
 H         1.450995         3.104580         2.499807
 H        -0.600287         2.219111         2.551455
