19
Iteration:  3638
 O         0.211301        -0.018429         0.315573
 C        -0.678470         1.069096         0.613826
 C        -2.178340         1.000190         0.660918
 C        -1.551729         1.979299        -0.322157
 C        -1.231304         3.247802         0.525981
 C        -0.303204         4.381466         0.045716
 O         0.835965         4.367509         0.912122
 C         1.056006         2.953658         1.313182
 C        -0.376869         2.314434         1.513895
 H         0.717638         0.218428        -0.431647
 H        -2.743111         0.170193         0.128994
 H        -2.756047         1.389586         1.585272
 H        -1.730547         2.018685        -1.426086
 H        -2.223721         3.647143         0.981381
 H        -0.145723         4.359775        -1.064800
 H        -0.774418         5.378136         0.181657
 H         1.782753         2.219724         0.811779
 H         1.438122         3.158673         2.269499
 H        -0.546664         2.278132         2.618976
