19
Iteration:  1637
 O         0.263207         0.236584         0.144308
 C        -0.643943         1.188308         0.560251
 C        -2.152798         1.055391         0.626514
 C        -1.567621         2.155942        -0.242233
 C        -1.319255         3.295161         0.786105
 C        -0.469597         4.285298         0.107789
 O         0.925520         3.928085         0.421633
 C         1.039373         3.002809         1.565201
 C        -0.322286         2.237609         1.558165
 H         0.669555        -0.160781         0.996407
 H        -2.392892         0.131831        -0.057692
 H        -2.682235         1.025720         1.718279
 H        -1.975832         2.302278        -1.211499
 H        -2.173298         3.716829         1.485914
 H        -0.565321         4.279005        -1.049132
 H        -0.531990         5.288536         0.426120
 H         1.885375         2.232302         1.550561
 H         1.246667         3.633436         2.456257
 H        -0.655082         2.044714         2.570124
