19
Iteration:  4515
 O         0.181824         0.113180         0.292846
 C        -0.683946         1.157906         0.612251
 C        -2.207650         0.941259         0.506401
 C        -1.482297         2.025752        -0.292672
 C        -1.260101         3.179002         0.622042
 C        -0.369773         4.323650         0.010483
 O         0.848972         4.278430         0.819920
 C         1.039748         2.980063         1.448069
 C        -0.292723         2.341905         1.605468
 H         0.347059        -0.112680        -0.691402
 H        -2.552108         0.041034         0.083308
 H        -2.893208         1.270183         1.306606
 H        -1.486030         2.200283        -1.371839
 H        -2.226974         3.431155         1.052283
 H        -0.018332         4.129149        -1.084563
 H        -0.674960         5.333077         0.196131
 H         1.927691         2.498140         0.925930
 H         1.470980         3.089096         2.503440
 H        -0.699841         2.241141         2.644745
