19
Iteration:  1161
 O         0.374776         0.324062         0.283642
 C        -0.647579         1.218106         0.640786
 C        -2.215144         0.941553         0.566899
 C        -1.551914         2.077524        -0.238349
 C        -1.340474         3.259542         0.752526
 C        -0.378992         4.415989         0.353045
 O         0.894933         3.821578         0.254702
 C         0.980766         2.995101         1.346454
 C        -0.371698         2.329975         1.594055
 H         0.195078        -0.556584         0.799388
 H        -2.433161         0.079880        -0.130653
 H        -2.883021         1.223039         1.391962
 H        -1.591832         2.161020        -1.313102
 H        -2.285867         3.614848         1.316309
 H        -0.607727         4.903364        -0.564973
 H        -0.454612         5.053717         1.270019
 H         1.821003         2.259964         1.020085
 H         1.395885         3.594110         2.200986
 H        -0.556799         2.256732         2.694381
