19
Iteration:  2058
 O         0.280222         0.280659         0.163212
 C        -0.685717         1.176971         0.752795
 C        -2.156970         0.953347         0.561445
 C        -1.492909         2.036052        -0.157325
 C        -1.310159         3.329834         0.690638
 C        -0.460692         4.390484         0.170419
 O         0.928916         3.985585         0.366381
 C         1.062116         2.900349         1.405190
 C        -0.381817         2.309639         1.727088
 H         0.069847        -0.661824         0.520277
 H        -2.449361         0.241524        -0.188852
 H        -2.935043         1.335255         1.281727
 H        -1.274230         2.064055        -1.242203
 H        -2.369719         3.600424         0.941745
 H        -0.646791         4.414015        -0.910443
 H        -0.703647         5.358476         0.639554
 H         1.841408         2.286622         1.063097
 H         1.446737         3.416978         2.367501
 H        -0.597115         2.301705         2.744214
