19
Iteration:   890charge 0 multiplicity 1
 O         0.288879         0.190041         0.314682
 C        -0.650995         1.208912         0.600955
 C        -2.111517         1.027288         0.505191
 C        -1.464244         2.205995        -0.203372
 C        -1.397574         3.216093         0.820547
 C        -0.502450         4.295149         0.256463
 O         0.865411         3.901348         0.283868
 C         1.073471         3.048355         1.403639
 C        -0.294251         2.328385         1.607010
 H        -0.208795        -0.662710         0.303130
 H        -2.380044         0.073858         0.105748
 H        -2.589443         1.186288         1.527461
 H        -1.579604         2.429530        -1.287087
 H        -2.280738         3.623043         1.347229
 H        -0.656289         4.493772        -0.809822
 H        -0.674785         5.216846         0.917988
 H         1.750679         2.240686         0.997624
 H         1.351020         3.597140         2.304795
 H        -0.415755         2.151904         2.619356
