19
Iteration:  3280
 O         0.344476         0.287079         0.328312
 C        -0.643549         1.169263         0.620125
 C        -2.129693         0.877217         0.544649
 C        -1.513994         2.108157        -0.281250
 C        -1.347328         3.259161         0.588185
 C        -0.344317         4.428611         0.338677
 O         0.928863         3.792623         0.343358
 C         0.897443         3.091524         1.531115
 C        -0.412602         2.337208         1.602556
 H         0.319751         0.043609        -0.637005
 H        -2.459271         0.078088        -0.158490
 H        -2.946788         0.976646         1.262849
 H        -1.645819         2.139349        -1.383918
 H        -2.321218         3.555182         1.203192
 H        -0.451673         4.979574        -0.591297
 H        -0.366130         5.233365         1.124884
 H         1.856906         2.347955         1.492660
 H         0.958743         3.746528         2.454580
 H        -0.772515         2.139061         2.650927
