19
Iteration:  3799charge 0 multiplicity 1
 O         0.094603         0.031497         0.362485
 C        -0.715842         1.212141         0.523658
 C        -2.152267         0.961389         0.446599
 C        -1.588686         2.056273        -0.313359
 C        -1.219946         3.207578         0.705690
 C        -0.303620         4.240876         0.018171
 O         0.845534         4.347359         0.872665
 C         1.110359         3.066165         1.491027
 C        -0.295250         2.239817         1.517891
 H         0.466216         0.038253        -0.501524
 H        -2.440377         0.081583        -0.152996
 H        -2.863559         1.241597         1.233668
 H        -1.667972         2.048832        -1.432306
 H        -2.031929         3.437269         1.291742
 H        -0.047192         3.866191        -1.083953
 H        -0.665924         5.225073        -0.128793
 H         1.869819         2.569425         0.831909
 H         1.448069         3.413169         2.482526
 H        -0.523972         1.988124         2.539824
