19
Iteration:  1641charge 0 multiplicity 1
 O         0.283653         0.208148         0.151120
 C        -0.653625         1.212555         0.532750
 C        -2.143705         1.058800         0.616791
 C        -1.596888         2.136537        -0.241558
 C        -1.337383         3.302976         0.809160
 C        -0.461502         4.252579         0.137399
 O         0.932550         3.911012         0.416104
 C         1.053674         3.014744         1.560151
 C        -0.328668         2.298497         1.553338
 H         0.548703        -0.065443         1.011430
 H        -2.416210         0.245181        -0.018045
 H        -2.568816         1.110131         1.608422
 H        -1.952337         2.293578        -1.278963
 H        -2.162755         3.548449         1.394254
 H        -0.500338         4.253726        -0.974171
 H        -0.648318         5.313068         0.468883
 H         1.814371         2.294114         1.486938
 H         1.236812         3.522583         2.480991
 H        -0.581306         2.031519         2.610891
