19
Iteration:   650charge 0 multiplicity 1
 O         0.300033         0.227876         0.300409
 C        -0.679439         1.120253         0.694292
 C        -2.203140         1.040876         0.622917
 C        -1.491474         2.143877        -0.299207
 C        -1.279652         3.186084         0.756930
 C        -0.502198         4.383008         0.309820
 O         0.908289         3.999472         0.310810
 C         1.079468         2.982853         1.290077
 C        -0.332377         2.295930         1.539381
 H         0.105994        -0.686016         0.827175
 H        -2.426480         0.057678         0.171368
 H        -3.040608         1.276091         1.308967
 H        -1.530577         2.353960        -1.335243
 H        -2.187447         3.517188         1.390615
 H        -0.681891         4.783921        -0.730607
 H        -0.762860         5.281907         1.029833
 H         1.830780         2.266865         1.035311
 H         1.440816         3.338276         2.343489
 H        -0.559292         2.115047         2.692712
