19
Iteration:  2382
 O         0.347060         0.191045         0.352618
 C        -0.592879         1.213819         0.501521
 C        -2.156452         0.924317         0.576997
 C        -1.610713         2.191392        -0.210175
 C        -1.342546         3.283048         0.835361
 C        -0.385560         4.383994         0.166303
 O         0.910980         3.821743         0.297072
 C         0.928622         3.101049         1.505051
 C        -0.322274         2.265853         1.630161
 H         0.232162        -0.012527        -0.538642
 H        -2.370952         0.060710        -0.074969
 H        -2.857510         1.123089         1.280768
 H        -1.974541         2.401649        -1.199686
 H        -2.288260         3.791757         1.399689
 H        -0.498288         4.511930        -0.891370
 H        -0.396207         5.350289         0.735207
 H         1.823846         2.496834         1.315389
 H         1.196395         3.649142         2.416824
 H        -0.597641         1.828399         2.595278
