19
Iteration:   561
 O         0.347428         0.397163         0.252669
 C        -0.656986         1.297192         0.691124
 C        -2.166334         1.050050         0.509308
 C        -1.524286         2.104828        -0.190327
 C        -1.308871         3.196299         0.818560
 C        -0.456718         4.277039         0.246431
 O         0.854728         3.780564         0.220976
 C         0.976263         2.969614         1.371486
 C        -0.288154         2.310463         1.685079
 H         0.107374        -0.528127         0.711063
 H        -2.440736         0.269225        -0.205041
 H        -2.851831         1.157172         1.415903
 H        -1.585691         2.283565        -1.268192
 H        -2.222567         3.610176         1.399634
 H        -0.651616         4.585242        -0.795235
 H        -0.627656         5.229861         0.831764
 H         1.792713         2.194354         1.128477
 H         1.360969         3.632795         2.260515
 H        -0.400731         2.031457         2.847319
