19
Iteration:  2419charge 0 multiplicity 1
 O         0.271194         0.268350         0.198769
 C        -0.710729         1.218381         0.707405
 C        -2.168828         0.860955         0.635160
 C        -1.524536         1.986032        -0.233994
 C        -1.359348         3.266535         0.684904
 C        -0.334727         4.427920         0.281310
 O         0.951178         3.827081         0.295603
 C         0.985835         3.077752         1.467032
 C        -0.357805         2.359799         1.650222
 H         0.673433         0.431699        -0.613470
 H        -2.302687        -0.086305         0.120184
 H        -3.055738         1.277026         1.286709
 H        -1.614235         2.137373        -1.330422
 H        -2.216685         3.621278         1.169096
 H        -0.510249         4.948669        -0.732246
 H        -0.470021         5.281795         1.005059
 H         1.656235         2.256500         1.348802
 H         1.172217         3.822052         2.285843
 H        -0.636070         2.178597         2.738162
