19
Iteration:  2338charge 0 multiplicity 1
 O         0.348641         0.400363         0.262276
 C        -0.711457         1.221957         0.722223
 C        -2.184512         0.880350         0.504124
 C        -1.574135         1.962381        -0.192997
 C        -1.375897         3.255519         0.732533
 C        -0.300735         4.453035         0.300026
 O         0.944606         3.867936         0.268224
 C         1.024202         2.936945         1.386513
 C        -0.430998         2.404062         1.658855
 H         0.048769        -0.390036        -0.066400
 H        -2.275937        -0.059534        -0.079965
 H        -2.809772         0.981526         1.289145
 H        -1.586199         1.937591        -1.298397
 H        -2.320428         3.776803         1.191888
 H        -0.605469         4.783383        -0.669268
 H        -0.379604         5.268952         1.099758
 H         1.805749         2.178445         1.307580
 H         1.339817         3.554103         2.236098
 H        -0.652026         2.083998         2.656189
