19
Iteration:   482charge 0 multiplicity 1
 O         0.361179         0.438287         0.012273
 C        -0.633753         1.196063         0.676580
 C        -2.192806         1.014093         0.726585
 C        -1.564987         2.065051        -0.125650
 C        -1.311281         3.229307         0.793088
 C        -0.397388         4.335865         0.080578
 O         0.888700         3.779408         0.315593
 C         0.963612         3.051486         1.542447
 C        -0.345594         2.256572         1.671108
 H         0.437043        -0.482802         0.455316
 H        -2.479358         0.195306         0.017364
 H        -2.842335         1.396387         1.510613
 H        -1.597236         2.217111        -1.211392
 H        -2.246144         3.684030         1.231950
 H        -0.488748         4.225357        -0.965469
 H        -0.647182         5.368386         0.371287
 H         1.818043         2.315437         1.297903
 H         1.314977         3.596589         2.466278
 H        -0.865817         1.995280         2.689030
