19
Iteration:  4922charge 0 multiplicity 1
 O         0.358242         0.233030         0.339446
 C        -0.597168         1.191366         0.606307
 C        -2.125291         0.923345         0.288470
 C        -1.486742         2.132415        -0.267999
 C        -1.334921         3.258846         0.796216
 C        -0.392276         4.399786         0.270431
 O         0.897399         3.779064         0.259825
 C         0.958859         3.130839         1.565589
 C        -0.443439         2.348343         1.739561
 H         0.144253        -0.747546         0.530243
 H        -2.325065         0.099029        -0.324355
 H        -2.877725         1.015535         1.056749
 H        -1.724507         2.397570        -1.277302
 H        -2.264194         3.679956         1.200884
 H        -0.801428         4.770982        -0.715954
 H        -0.464100         5.263655         0.882229
 H         1.753791         2.406652         1.397342
 H         0.963698         3.911647         2.392032
 H        -0.822419         2.158995         2.776093
