19
Iteration:  4525charge 0 multiplicity 1
 O         0.204849         0.057622         0.330494
 C        -0.646312         1.158363         0.557620
 C        -2.193464         1.009176         0.540877
 C        -1.533152         1.987729        -0.346112
 C        -1.235687         3.198402         0.591976
 C        -0.327460         4.378264         0.081759
 O         0.860223         4.266979         0.810443
 C         1.044612         2.972589         1.471549
 C        -0.374755         2.319169         1.572893
 H         0.371037         0.141567        -0.639528
 H        -2.199881         0.043854         0.130420
 H        -2.729444         1.187350         1.445100
 H        -1.877558         2.030881        -1.396474
 H        -2.136013         3.538174         1.041551
 H        -0.240029         4.292193        -1.047397
 H        -0.884162         5.312313         0.116304
 H         1.644716         2.256345         0.791882
 H         1.550449         3.269117         2.490427
 H        -0.735980         2.228793         2.679461
