19
Iteration:  4716
 O         0.214897         0.194697         0.397004
 C        -0.719901         1.164065         0.604299
 C        -2.189642         0.863733         0.491322
 C        -1.621773         2.056156        -0.228878
 C        -1.266411         3.151696         0.690618
 C        -0.270427         4.167732        -0.053866
 O         0.811229         4.339516         0.940013
 C         1.108094         2.991539         1.275735
 C        -0.310378         2.335505         1.532882
 H         0.068887        -0.017147        -0.555427
 H        -2.492789         0.125289        -0.339324
 H        -2.978516         1.097082         1.329284
 H        -1.687810         2.315905        -1.304729
 H        -2.069727         3.816635         1.102357
 H         0.249777         3.827293        -0.957039
 H        -0.697750         5.224353        -0.046616
 H         1.671769         2.636420         0.424558
 H         1.677427         3.079222         2.117131
 H        -0.309618         2.362878         2.617210
