19
Iteration:   682charge 0 multiplicity 1
 O         0.210414         0.226885         0.142097
 C        -0.682005         1.185558         0.744036
 C        -2.162230         0.800129         0.566484
 C        -1.474197         2.121866        -0.122695
 C        -1.361959         3.301885         0.705965
 C        -0.434860         4.422371         0.234951
 O         0.917995         3.918193         0.313108
 C         1.097101         2.972772         1.351118
 C        -0.345435         2.444660         1.721528
 H         0.332149        -0.497401         0.660939
 H        -2.081189        -0.056670        -0.173266
 H        -3.145875         0.728161         1.112863
 H        -1.467018         2.275054        -1.145820
 H        -2.279086         3.801062         1.210104
 H        -0.558691         4.868093        -0.752150
 H        -0.490963         5.245033         1.025477
 H         1.594090         2.173317         0.789987
 H         1.614250         3.495827         2.188353
 H        -0.599662         2.430080         2.871565
