19
Iteration:    71charge 0 multiplicity 1
 O         0.335470         0.163241         0.357504
 C        -0.619154         1.116477         0.561152
 C        -2.171785         1.066072         0.618514
 C        -1.528996         2.049912        -0.258281
 C        -1.292269         3.199615         0.792674
 C        -0.466887         4.473689         0.305163
 O         0.841879         4.013575         0.339776
 C         1.012382         2.989942         1.318859
 C        -0.290816         2.265952         1.491426
 H         0.213425        -0.441665         1.025515
 H        -2.885162         0.344961         0.133112
 H        -2.692441         1.408205         1.562987
 H        -1.945107         2.275352        -1.268747
 H        -2.209326         3.457838         1.251330
 H        -0.691260         4.788889        -0.822857
 H        -0.704031         5.431348         0.802793
 H         1.912089         2.401973         0.897790
 H         1.513165         3.446261         2.220282
 H        -0.442400         1.889256         2.574646
