19
Iteration:   863
 O         0.223931         0.238877         0.131612
 C        -0.702845         1.132929         0.719883
 C        -2.225558         0.896786         0.567071
 C        -1.485818         2.027978        -0.114687
 C        -1.186819         3.238865         0.727378
 C        -0.400583         4.430607         0.273404
 O         0.913963         3.932386         0.278457
 C         0.981044         3.155452         1.444507
 C        -0.301229         2.330487         1.599086
 H        -0.153868        -0.638542         0.253472
 H        -2.262540        -0.064659        -0.016079
 H        -2.878269         0.923900         1.409503
 H        -1.453409         1.882643        -1.161969
 H        -2.016899         3.686559         1.242116
 H        -0.622353         4.727250        -0.786171
 H        -0.579368         5.247440         1.011917
 H         1.844694         2.503992         1.288183
 H         1.008004         3.830426         2.358016
 H        -0.616377         2.378540         2.723751
