19
Iteration:  3221charge 0 multiplicity 1
 O         0.361300         0.240763         0.287850
 C        -0.689379         1.170142         0.622410
 C        -2.217844         0.833685         0.387186
 C        -1.582437         2.125664        -0.287353
 C        -1.321223         3.255710         0.704277
 C        -0.379036         4.379988         0.230037
 O         0.970572         3.971674         0.424030
 C         1.005233         3.042560         1.557785
 C        -0.382532         2.321373         1.609618
 H         0.036380        -0.720396         0.534777
 H        -2.400412        -0.049472        -0.215337
 H        -2.974455         1.158981         1.110379
 H        -1.614545         2.335373        -1.347763
 H        -2.089359         3.715989         1.462281
 H        -0.520119         4.495032        -0.826334
 H        -0.633860         5.248902         0.852061
 H         1.934048         2.582182         1.476926
 H         1.067402         3.675183         2.521356
 H        -0.690212         2.382944         2.642846
