19
Iteration:  3241charge 0 multiplicity 1
 O         0.255327         0.232228         0.287715
 C        -0.679064         1.219771         0.607713
 C        -2.067943         0.971071         0.435081
 C        -1.436450         2.147836        -0.243109
 C        -1.335501         3.204449         0.796549
 C        -0.442901         4.336876         0.169944
 O         0.931669         3.898428         0.404003
 C         0.926598         3.127247         1.576910
 C        -0.329973         2.247469         1.629162
 H        -0.263128        -0.437032        -0.100017
 H        -2.211037         0.272060        -0.391089
 H        -2.849076         1.072587         1.214700
 H        -1.404906         2.345364        -1.303015
 H        -2.305760         3.493935         1.086196
 H        -0.423794         4.249318        -0.969001
 H        -0.675425         5.306053         0.608660
 H         1.675894         2.470247         1.443936
 H         1.006049         3.815700         2.489556
 H        -0.541145         2.038008         2.684290
