19
Iteration:   642charge 0 multiplicity 1
 O         0.316295         0.206611         0.365636
 C        -0.663049         1.202303         0.609912
 C        -2.230979         1.041985         0.575441
 C        -1.546365         2.095745        -0.266258
 C        -1.284614         3.205849         0.733466
 C        -0.504861         4.353676         0.326455
 O         0.878933         3.987853         0.324315
 C         1.115703         2.974147         1.310001
 C        -0.270430         2.295769         1.539612
 H         0.011472        -0.672864         0.841141
 H        -2.562590         0.148948         0.031476
 H        -2.797164         1.455385         1.352794
 H        -1.846896         2.368712        -1.313078
 H        -2.199070         3.564634         1.208665
 H        -0.693307         4.850954        -0.674999
 H        -0.720354         5.036923         1.149104
 H         1.954810         2.371468         1.027473
 H         1.390063         3.502605         2.297127
 H        -0.429254         2.002390         2.583957
