19
Iteration:   265
 O         0.254435         0.261692         0.152770
 C        -0.683533         1.167431         0.572174
 C        -2.144226         0.785957         0.633634
 C        -1.696211         2.103847        -0.092813
 C        -1.297034         3.308636         0.740563
 C        -0.356096         4.334293         0.205798
 O         0.981195         3.976286         0.308658
 C         1.032304         3.093102         1.502396
 C        -0.300418         2.310505         1.550988
 H         0.263684        -0.500058         0.914257
 H        -2.289377         0.062976        -0.179798
 H        -2.859504         0.656853         1.527036
 H        -2.179182         2.252364        -1.034908
 H        -2.066677         3.974158         1.285537
 H        -0.402219         4.586453        -0.879996
 H        -0.508724         5.327908         0.764795
 H         2.000970         2.486966         1.388053
 H         0.814327         3.741815         2.417857
 H        -0.584557         2.131920         2.542777
