19
Iteration:  1192
 O         0.211990         0.178718         0.283442
 C        -0.664783         1.158587         0.686601
 C        -2.086320         0.864304         0.488823
 C        -1.651952         2.092163        -0.177796
 C        -1.228071         3.286470         0.768291
 C        -0.355914         4.455006         0.261146
 O         0.919548         3.997219         0.335282
 C         1.039212         3.017395         1.348956
 C        -0.349531         2.339394         1.602890
 H         0.222980        -0.462915         0.919049
 H        -2.354319         0.048719        -0.273898
 H        -2.937399         0.700754         1.213842
 H        -1.721454         2.186534        -1.222983
 H        -2.198756         3.542986         1.415930
 H        -0.702346         4.877368        -0.719303
 H        -0.682722         5.394390         0.889627
 H         1.698904         2.297010         0.774876
 H         1.437233         3.540189         2.233184
 H        -0.682954         2.275759         2.613174
