19
Iteration:   778charge 0 multiplicity 1
 O         0.307807         0.495529         0.065788
 C        -0.729458         1.185605         0.791808
 C        -2.171617         0.776450         0.515753
 C        -1.678753         2.060648        -0.091393
 C        -1.312392         3.280670         0.794281
 C        -0.363858         4.294380         0.136733
 O         0.988969         3.779785         0.283639
 C         1.036496         3.048414         1.482743
 C        -0.371383         2.424105         1.699186
 H         0.374688        -0.380757         0.532261
 H        -2.294242        -0.114373        -0.186306
 H        -3.051565         0.974091         1.205878
 H        -1.553859         2.167285        -1.128144
 H        -2.154449         3.760014         1.312250
 H        -0.374126         4.584441        -0.892255
 H        -0.471033         5.205409         0.783646
 H         1.864776         2.194689         1.264344
 H         1.269341         3.687098         2.355828
 H        -0.654603         2.449999         2.697641
