19
Iteration:  1059
 O         0.356506         0.355462         0.036570
 C        -0.613375         1.235599         0.657525
 C        -2.121450         0.995520         0.718894
 C        -1.531183         2.097427        -0.118446
 C        -1.311830         3.290549         0.726186
 C        -0.476884         4.378789         0.128395
 O         0.958634         3.799967         0.388189
 C         0.943995         2.916578         1.492838
 C        -0.412059         2.352146         1.587181
 H         0.354529        -0.454737         0.552715
 H        -2.512019         0.156310         0.194544
 H        -2.674510         1.244913         1.672513
 H        -1.968579         1.989117        -1.154447
 H        -2.373193         3.499422         1.217207
 H        -0.620078         4.569539        -0.981524
 H        -0.655017         5.416800         0.568854
 H         1.669625         2.136490         1.378175
 H         1.413941         3.481673         2.355825
 H        -0.783674         2.051804         2.572492
