19
Iteration:  3441
 O         0.315463         0.296055         0.315188
 C        -0.782112         1.113525         0.709391
 C        -2.166549         0.912891         0.502510
 C        -1.620818         2.102767        -0.244416
 C        -1.301903         3.242081         0.688338
 C        -0.356465         4.257381         0.136618
 O         1.000468         4.108393         0.586605
 C         1.010000         2.925287         1.378221
 C        -0.468629         2.352423         1.576768
 H         1.114214         0.798050         0.037929
 H        -2.116219         0.132439        -0.284032
 H        -3.059749         0.779732         1.195500
 H        -1.453726         1.930416        -1.308951
 H        -2.126491         3.711628         1.081986
 H        -0.316789         4.208914        -0.973932
 H        -0.694935         5.336445         0.310260
 H         1.781433         2.148084         0.905660
 H         1.307947         3.236397         2.500791
 H        -0.646675         2.149260         2.643372
