19
Iteration:  3334charge 0 multiplicity 1
 O         0.294955         0.306550         0.282175
 C        -0.652729         1.192615         0.634410
 C        -2.061448         0.903364         0.448835
 C        -1.484684         2.178690        -0.204101
 C        -1.378758         3.335490         0.753432
 C        -0.427134         4.340653         0.192062
 O         0.920782         3.816195         0.331177
 C         0.939976         2.938759         1.536156
 C        -0.471612         2.349283         1.671654
 H         1.202115         0.709748         0.076307
 H        -2.166115         0.001066        -0.177446
 H        -2.735553         0.782658         1.296350
 H        -1.281325         2.155821        -1.292479
 H        -2.402983         3.795981         1.163648
 H        -0.631082         4.275555        -0.837717
 H        -0.383590         5.360264         0.611122
 H         1.666015         2.124041         1.273824
 H         1.131354         3.517971         2.452784
 H        -0.807872         2.217730         2.724433
