19
Iteration:   399charge 0 multiplicity 1
 O         0.368938         0.243770         0.187998
 C        -0.654006         1.167419         0.687167
 C        -2.080003         1.049884         0.594277
 C        -1.470309         2.075218        -0.264481
 C        -1.331866         3.287356         0.805181
 C        -0.485542         4.478593         0.307217
 O         0.845958         3.852641         0.201846
 C         0.990225         2.902018         1.413686
 C        -0.367658         2.338091         1.706912
 H         0.159201        -0.762377         0.465597
 H        -2.599662         0.108314         0.222191
 H        -2.655184         1.357015         1.504157
 H        -1.727125         2.115349        -1.368373
 H        -2.304705         3.696709         1.131334
 H        -0.829524         4.869868        -0.734474
 H        -0.462798         5.446845         0.922012
 H         1.707309         2.119390         1.054339
 H         1.332716         3.526062         2.361574
 H        -0.651157         2.169997         2.688415
