19
Iteration:  1116
 O         0.341334         0.325246         0.147239
 C        -0.645181         1.168656         0.743693
 C        -2.095707         0.901479         0.450927
 C        -1.620452         2.182171        -0.118574
 C        -1.292881         3.328604         0.865065
 C        -0.342678         4.359950         0.242915
 O         0.846948         3.730916         0.188307
 C         0.967667         3.053409         1.447277
 C        -0.393765         2.378365         1.686114
 H         0.285978        -0.595409         0.635676
 H        -2.311257         0.149841        -0.337552
 H        -2.733384         0.945037         1.388734
 H        -1.552555         2.183839        -1.172772
 H        -2.290118         3.744239         1.279269
 H        -0.705180         4.541962        -0.758026
 H        -0.327648         5.266148         0.933009
 H         1.788903         2.252390         1.361815
 H         1.105676         3.850954         2.237007
 H        -0.584829         2.064600         2.737646
