19
Iteration:  3379
 O         0.248547         0.105162         0.232562
 C        -0.646655         1.224596         0.558818
 C        -2.087263         0.877860         0.541313
 C        -1.549446         2.123404        -0.292226
 C        -1.320490         3.222721         0.720145
 C        -0.375696         4.410111         0.222934
 O         0.994992         3.790404         0.348459
 C         0.908789         3.255304         1.690036
 C        -0.406927         2.314374         1.594428
 H         0.843033         0.614715        -0.434388
 H        -2.550605         0.144227        -0.080811
 H        -2.798249         1.034328         1.373633
 H        -1.531204         2.133793        -1.363527
 H        -2.265795         3.706176         1.273281
 H        -0.426597         4.738393        -0.792415
 H        -0.554456         5.194595         0.988026
 H         1.828060         2.679223         1.888580
 H         0.571626         4.063383         2.295293
 H        -0.665667         1.979820         2.620578
