19
Iteration:   155
 O         0.505274         0.351582         0.207857
 C        -0.662938         1.218070         0.569882
 C        -2.153010         0.954977         0.637901
 C        -1.583739         2.181449        -0.203467
 C        -1.296672         3.350687         0.873998
 C        -0.441100         4.377140         0.219597
 O         0.813992         3.679008         0.224200
 C         0.939217         2.947471         1.375618
 C        -0.392212         2.363115         1.694485
 H         0.497953        -0.303498         0.995615
 H        -2.406854         0.086816        -0.046381
 H        -2.780012         1.040306         1.546834
 H        -1.746214         2.447803        -1.305683
 H        -2.232931         3.734355         1.341078
 H        -0.636181         4.452783        -0.853165
 H        -0.397894         5.304403         0.766347
 H         1.700995         2.165707         1.167122
 H         1.183802         3.559857         2.231766
 H        -0.590806         2.079377         2.709650
