19
Iteration:   373charge 0 multiplicity 1
 O         0.259636         0.286970         0.312493
 C        -0.677865         1.248208         0.696851
 C        -2.114757         0.946203         0.441131
 C        -1.464792         2.118293        -0.211438
 C        -1.370517         3.237507         0.921551
 C        -0.446694         4.358010         0.345266
 O         0.836799         3.852063         0.173529
 C         1.075202         2.984110         1.311208
 C        -0.320658         2.364825         1.602364
 H         0.145533        -0.546591         0.965097
 H        -2.079271         0.080718        -0.193758
 H        -3.055397         0.973287         1.036149
 H        -1.440485         2.290506        -1.248951
 H        -2.313981         3.710493         1.430389
 H        -0.729058         4.864489        -0.541489
 H        -0.370368         5.187590         1.104665
 H         1.881796         2.250721         0.965942
 H         1.403135         3.540000         2.182877
 H        -0.534769         2.112975         2.723498
