19
Iteration:   383
 O         0.288286         0.274167         0.268752
 C        -0.605170         1.238427         0.648044
 C        -2.126942         0.969740         0.517076
 C        -1.441707         2.152477        -0.179395
 C        -1.366251         3.282379         0.785366
 C        -0.483992         4.381664         0.319762
 O         0.791348         3.787898         0.251808
 C         1.065886         2.982090         1.322162
 C        -0.329645         2.360551         1.647252
 H         0.032314        -0.570352         0.827239
 H        -2.364237         0.240685        -0.211338
 H        -2.847323         1.135605         1.349630
 H        -1.265836         2.292159        -1.217515
 H        -2.333643         3.503758         1.378651
 H        -0.666958         4.757665        -0.647914
 H        -0.598556         5.132002         1.094154
 H         1.725796         2.170415         0.932936
 H         1.548590         3.493555         2.102662
 H        -0.440735         2.217646         2.823728
