19
Iteration:  4582charge 0 multiplicity 1
 O         0.203905         0.173791         0.314273
 C        -0.699825         1.155278         0.685643
 C        -2.177274         0.909368         0.429653
 C        -1.563100         2.072558        -0.273623
 C        -1.310775         3.146545         0.639301
 C        -0.320554         4.291015         0.067880
 O         0.897414         4.296192         0.866537
 C         1.026882         2.924098         1.232421
 C        -0.381365         2.341733         1.569017
 H         0.927290         0.294202         0.899237
 H        -2.416493         0.000941        -0.131597
 H        -2.905732         1.127350         1.263554
 H        -1.330520         2.232562        -1.291633
 H        -2.142040         3.642966         1.117136
 H        -0.022395         3.993432        -0.978068
 H        -0.841386         5.209022         0.217449
 H         1.607359         2.224187         0.525743
 H         1.670482         2.942507         2.135539
 H        -0.454651         2.507525         2.654628
