19
Iteration:  3762
 O         0.204217         0.146042         0.180385
 C        -0.674171         1.128682         0.626963
 C        -2.192954         0.915182         0.598626
 C        -1.572452         2.018192        -0.258988
 C        -1.235478         3.309974         0.588096
 C        -0.232154         4.360885        -0.044214
 O         0.848899         4.212253         0.899824
 C         0.997749         2.952162         1.427892
 C        -0.419066         2.305788         1.558253
 H         1.022130         0.309774         0.528911
 H        -2.442572         0.084139        -0.003519
 H        -2.774567         1.082369         1.453652
 H        -1.799357         1.754753        -1.284192
 H        -2.084807         3.871946         1.055004
 H         0.149241         4.099928        -1.049224
 H        -0.709588         5.441161        -0.019508
 H         1.621994         2.379292         0.751010
 H         1.636942         2.720310         2.273307
 H        -0.924031         2.413253         2.559669
