19
Iteration:  1289
 O         0.349997         0.383102         0.199375
 C        -0.650426         1.212856         0.623542
 C        -2.117279         0.924955         0.593698
 C        -1.627122         2.134875        -0.149953
 C        -1.360485         3.281584         0.743587
 C        -0.408139         4.364720         0.241338
 O         0.927037         3.713318         0.242452
 C         1.020013         2.994587         1.516665
 C        -0.392295         2.354542         1.555056
 H         0.453883        -0.282397         0.843568
 H        -2.369289         0.141170        -0.188184
 H        -2.864673         0.960558         1.437488
 H        -1.766576         2.213958        -1.212909
 H        -2.175628         3.784508         1.324023
 H        -0.658081         4.735370        -0.846617
 H        -0.527639         5.161082         0.969697
 H         1.931909         2.377621         1.522501
 H         1.173497         3.739991         2.389005
 H        -0.587266         2.178128         2.684791
