19
Iteration:  1672charge 0 multiplicity 1
 O         0.265489         0.300355         0.164073
 C        -0.752135         1.170831         0.652921
 C        -2.143449         0.897231         0.576322
 C        -1.594856         2.038945        -0.206646
 C        -1.293720         3.316731         0.729493
 C        -0.360176         4.422496         0.260433
 O         1.001651         3.903316         0.303033
 C         1.014235         3.011896         1.497493
 C        -0.375463         2.349016         1.596342
 H         0.198631        -0.547926         0.773743
 H        -2.218934         0.010221        -0.104981
 H        -2.813973         0.855525         1.553715
 H        -1.822718         2.013014        -1.274805
 H        -2.220282         3.604062         1.258223
 H        -0.486991         4.873090        -0.789287
 H        -0.568757         5.196701         0.958384
 H         1.854632         2.342099         1.296090
 H         1.110630         3.562983         2.431762
 H        -0.624531         2.124325         2.628670
