19
Iteration:  1731
 O         0.376654         0.285090         0.395659
 C        -0.662859         1.232136         0.542444
 C        -2.154687         0.946494         0.414063
 C        -1.518750         2.265197        -0.181714
 C        -1.324939         3.287870         0.877983
 C        -0.406156         4.398925         0.257179
 O         0.794926         3.713483         0.240669
 C         1.018867         2.967943         1.412666
 C        -0.357595         2.333350         1.596880
 H         0.130551        -0.523931         0.886350
 H        -2.447462         0.132877        -0.226832
 H        -2.751396         1.048658         1.216540
 H        -1.789758         2.402753        -1.268663
 H        -2.081863         3.749552         1.447014
 H        -0.531271         4.729953        -0.721986
 H        -0.466496         5.213217         0.991349
 H         1.913999         2.459580         1.084417
 H         1.347047         3.491068         2.242625
 H        -0.583784         1.907600         2.621188
