19
Iteration:  1500
 O         0.359829         0.315196         0.193186
 C        -0.692230         1.147455         0.789194
 C        -2.157200         0.917920         0.503131
 C        -1.491498         2.133617        -0.149577
 C        -1.330785         3.295492         0.754709
 C        -0.334578         4.445576         0.348605
 O         0.831398         3.788593         0.222336
 C         1.000501         2.969725         1.332178
 C        -0.444198         2.396563         1.661165
 H         0.191346        -0.639396         0.615943
 H        -2.162313         0.105726        -0.240379
 H        -2.964482         0.925521         1.108222
 H        -1.269212         2.187533        -1.198269
 H        -2.241514         3.848519         1.078751
 H        -0.669793         4.854868        -0.568366
 H        -0.384947         5.192001         1.161586
 H         1.623521         2.125253         1.131557
 H         1.538504         3.473624         2.105069
 H        -0.710650         2.363828         2.770838
