19
Iteration:  1607
 O         0.225579         0.318214         0.015251
 C        -0.697947         1.160552         0.675689
 C        -2.218806         0.852106         0.615899
 C        -1.597992         2.003655        -0.176922
 C        -1.374831         3.256864         0.747427
 C        -0.335103         4.310235         0.199149
 O         1.064263         3.939768         0.401192
 C         1.046378         3.094163         1.523671
 C        -0.395928         2.444800         1.611300
 H         0.483716        -0.461157         0.661282
 H        -2.440108        -0.060143        -0.011087
 H        -2.867263         0.796829         1.529451
 H        -1.561878         1.877969        -1.239561
 H        -2.114623         3.830365         1.237932
 H        -0.532267         4.506906        -0.912759
 H        -0.411504         5.279899         0.732815
 H         1.719948         2.277643         1.447722
 H         1.277976         3.766427         2.338887
 H        -0.688444         2.367405         2.680312
