19
Iteration:  1419charge 0 multiplicity 1
 O         0.144727         0.173053         0.095086
 C        -0.700392         1.122056         0.761797
 C        -2.135432         0.890018         0.576311
 C        -1.424138         2.061555        -0.204848
 C        -1.304807         3.247282         0.739228
 C        -0.373818         4.363089         0.232914
 O         0.950824         4.046628         0.379635
 C         1.035528         3.072684         1.390200
 C        -0.335551         2.373452         1.650564
 H        -0.026647        -0.698299         0.641885
 H        -2.343871        -0.095240         0.134152
 H        -2.880913         1.278956         1.407007
 H        -1.501783         2.035172        -1.313773
 H        -2.156760         3.753384         1.125015
 H        -0.821243         4.665204        -0.830960
 H        -0.662705         5.210631         0.888484
 H         1.805242         2.391605         1.017903
 H         1.140541         3.688790         2.304034
 H        -0.601517         2.467444         2.762546
