19
Iteration:  3273charge 0 multiplicity 1
 O         0.361641         0.206648         0.288047
 C        -0.635196         1.197360         0.631003
 C        -2.122222         0.934875         0.519117
 C        -1.529860         2.112137        -0.286040
 C        -1.311732         3.247608         0.660789
 C        -0.372802         4.463113         0.315622
 O         0.906615         3.778630         0.315343
 C         0.882615         3.115198         1.609619
 C        -0.416206         2.320373         1.614477
 H         0.151813        -0.114236        -0.689776
 H        -2.229303         0.117305        -0.189736
 H        -2.862129         1.055621         1.337968
 H        -1.488910         2.092332        -1.367955
 H        -2.200890         3.548337         1.049879
 H        -0.500212         4.905349        -0.754425
 H        -0.594423         5.278381         1.022882
 H         1.691612         2.398619         1.565612
 H         1.195371         3.721216         2.442565
 H        -0.774848         2.310995         2.648964
