19
Iteration:  3757charge 0 multiplicity 1
 O         0.216583         0.197134         0.170742
 C        -0.697461         1.107141         0.636215
 C        -2.207670         0.903584         0.621853
 C        -1.540166         2.006535        -0.271918
 C        -1.234068         3.310885         0.558748
 C        -0.220368         4.368703        -0.036889
 O         0.842301         4.219964         0.911770
 C         0.966352         2.893176         1.402842
 C        -0.404397         2.318960         1.573254
 H         1.125191         0.334979         0.673860
 H        -2.473546        -0.069051         0.097791
 H        -2.856069         1.082060         1.584491
 H        -1.860463         1.932848        -1.335224
 H        -2.058713         3.973915         0.997089
 H         0.110729         4.180852        -1.074518
 H        -0.553269         5.360888        -0.058522
 H         1.542333         2.284295         0.631514
 H         1.633476         2.877877         2.309583
 H        -0.895579         2.240573         2.551714
