19
Iteration:  2528charge 0 multiplicity 1
 O         0.262185         0.281390         0.177615
 C        -0.605390         1.231867         0.742726
 C        -2.135625         0.980064         0.644127
 C        -1.411281         2.055741        -0.274508
 C        -1.303894         3.269088         0.714948
 C        -0.444340         4.340873         0.278893
 O         0.877569         3.763455         0.292894
 C         0.934829         2.999211         1.451340
 C        -0.372500         2.398175         1.639493
 H         0.861403         0.755078        -0.424871
 H        -2.529986         0.073999         0.067822
 H        -2.794778         1.152591         1.558431
 H        -1.728759         2.064236        -1.340864
 H        -2.457271         3.403872         1.132202
 H        -0.566345         4.700138        -0.801332
 H        -0.402739         5.208068         0.924754
 H         1.628891         2.209193         1.490172
 H         1.145534         3.708682         2.320488
 H        -0.720498         2.470585         2.670376
