19
Iteration:  3819charge 0 multiplicity 1
 O         0.210449        -0.030147         0.313463
 C        -0.700181         1.097280         0.629111
 C        -2.249181         0.997394         0.475619
 C        -1.508434         2.089922        -0.297124
 C        -1.215738         3.264536         0.621298
 C        -0.302397         4.238792         0.027446
 O         0.802993         4.342396         0.919877
 C         1.074594         3.024745         1.436842
 C        -0.291768         2.318362         1.503369
 H         0.097549        -0.212818        -0.703429
 H        -2.518727         0.056575         0.028392
 H        -2.829903         1.216066         1.271542
 H        -1.761662         2.333854        -1.359358
 H        -2.092507         3.744966         1.009340
 H         0.124212         3.999028        -0.962034
 H        -0.861813         5.193443        -0.008765
 H         1.679242         2.556522         0.724646
 H         1.395826         3.127466         2.474343
 H        -0.520748         2.394117         2.552155
