19
Iteration:  3887
 O         0.354199         0.234071         0.478881
 C        -0.735787         1.137198         0.533469
 C        -2.284413         0.894145         0.492362
 C        -1.570590         2.102346        -0.318040
 C        -1.262216         3.270150         0.571115
 C        -0.246776         4.291893         0.075035
 O         0.885561         4.300577         1.018537
 C         1.025769         2.879208         1.179464
 C        -0.411982         2.292313         1.480109
 H         0.115365        -0.580311         0.141569
 H        -2.650544        -0.022344         0.070466
 H        -2.839594         1.090893         1.416427
 H        -1.692424         2.046536        -1.396006
 H        -2.030674         3.786604         1.036320
 H         0.034506         4.066526        -0.966801
 H        -0.627481         5.254385         0.207289
 H         1.353108         2.408492         0.250892
 H         1.549363         2.766106         2.140748
 H        -0.602490         2.013711         2.498528
