19
Iteration:  2556
 O         0.316338         0.302881         0.333379
 C        -0.709799         1.214038         0.598931
 C        -2.148657         0.783890         0.646081
 C        -1.624541         2.134673        -0.240535
 C        -1.338307         3.304791         0.733097
 C        -0.382196         4.373807         0.236451
 O         0.961331         3.837296         0.329657
 C         1.046486         3.022588         1.430821
 C        -0.402457         2.311602         1.562323
 H         0.952367         0.767238        -0.317943
 H        -2.595324         0.086525        -0.002170
 H        -2.790858         0.840393         1.500125
 H        -1.901219         2.302166        -1.310935
 H        -2.212066         3.668931         1.076078
 H        -0.476666         4.701817        -0.784437
 H        -0.383456         5.323365         0.853054
 H         1.918723         2.241917         1.355169
 H         1.086944         3.670535         2.284598
 H        -0.715512         2.174993         2.626506
