19
Iteration:  2855
 O         0.302808         0.225714         0.182734
 C        -0.639947         1.216869         0.645285
 C        -2.157104         1.026293         0.516882
 C        -1.544374         2.117363        -0.273205
 C        -1.305563         3.186754         0.712499
 C        -0.430056         4.309864         0.333140
 O         0.906796         3.724045         0.270167
 C         1.018004         3.143952         1.497375
 C        -0.385352         2.380326         1.659295
 H         1.106032         0.064356         0.821075
 H        -2.648122         0.174007        -0.007277
 H        -2.877706         1.301863         1.355424
 H        -1.534555         2.120215        -1.390860
 H        -2.254441         3.635521         1.262287
 H        -0.802011         4.764939        -0.702684
 H        -0.618754         5.103463         1.123251
 H         1.881636         2.538192         1.576454
 H         0.989075         4.024709         2.364948
 H        -0.649075         2.260639         2.734159
