19
Iteration:   200charge 0 multiplicity 1
 O         0.341440         0.520578         0.038289
 C        -0.700345         1.190768         0.728078
 C        -2.189115         0.727920         0.649146
 C        -1.674482         2.048439        -0.093287
 C        -1.309105         3.330862         0.765407
 C        -0.278035         4.341978         0.201524
 O         0.951762         3.749166         0.193638
 C         0.982972         3.038783         1.536187
 C        -0.403041         2.403444         1.653280
 H         0.373480        -0.401846         0.436621
 H        -2.355533        -0.248594         0.092254
 H        -2.892542         0.997502         1.484187
 H        -1.494829         1.994424        -1.186730
 H        -2.136473         3.858685         1.241363
 H        -0.585309         4.641755        -0.849752
 H        -0.326549         5.149428         0.923692
 H         1.869276         2.331126         1.432750
 H         1.104855         3.829955         2.228537
 H        -0.780824         2.321812         2.682004
