19
Iteration:  1337charge 0 multiplicity 1
 O         0.307894         0.511384         0.171963
 C        -0.709427         1.257026         0.750428
 C        -2.075132         0.864966         0.476611
 C        -1.569216         2.154462        -0.185047
 C        -1.400692         3.251058         0.798591
 C        -0.353258         4.299211         0.245452
 O         0.875909         3.602432         0.230476
 C         1.016609         3.036132         1.448937
 C        -0.382621         2.410924         1.716178
 H         0.313282        -0.378365         0.590439
 H        -2.216410         0.101741        -0.226395
 H        -2.797631         0.871037         1.244864
 H        -1.492540         2.148999        -1.290860
 H        -2.271133         3.770549         1.307278
 H        -0.621162         4.550571        -0.726635
 H        -0.257958         5.246936         0.905376
 H         1.860363         2.314483         1.310302
 H         1.418489         3.716451         2.197218
 H        -0.584006         2.324002         2.721060
