19
Iteration:  3501
 O         0.156575         0.007478         0.301295
 C        -0.674445         1.084073         0.594270
 C        -2.237963         0.947197         0.604813
 C        -1.525004         1.978808        -0.339728
 C        -1.196391         3.241876         0.604069
 C        -0.386568         4.429775         0.096149
 O         0.901216         4.263954         0.716420
 C         1.053679         3.017496         1.456165
 C        -0.319601         2.342546         1.522122
 H         0.970424         0.298986        -0.058204
 H        -2.553777        -0.012036         0.152691
 H        -2.841774         1.229732         1.427882
 H        -1.779586         1.939659        -1.423572
 H        -2.208179         3.541393         1.074065
 H        -0.379942         4.403952        -0.990717
 H        -0.851301         5.372212         0.447378
 H         1.952095         2.510905         1.079012
 H         1.411929         3.414728         2.485116
 H        -0.601965         2.229611         2.572137
