19
Iteration:  2574charge 0 multiplicity 1
 O         0.274162         0.220271         0.319464
 C        -0.686656         1.218852         0.605711
 C        -2.071755         0.824407         0.512867
 C        -1.745258         2.077633        -0.113484
 C        -1.285557         3.332224         0.790095
 C        -0.328484         4.408738         0.157915
 O         0.995268         3.873893         0.273736
 C         0.936397         3.004519         1.496589
 C        -0.399154         2.376431         1.556372
 H         1.078488         0.789162        -0.007982
 H        -2.081123        -0.025292        -0.227869
 H        -2.677578         0.704204         1.484540
 H        -2.016793         2.189804        -1.146804
 H        -2.175370         3.805059         1.566772
 H        -0.605140         4.645509        -0.874862
 H        -0.425876         5.284501         0.808043
 H         1.701320         2.320791         1.370506
 H         1.193625         3.607024         2.430733
 H        -0.727620         2.026690         2.522008
