19
Iteration:   466
 O         0.289025         0.338192         0.064213
 C        -0.651587         1.161888         0.609424
 C        -2.096007         0.899005         0.630051
 C        -1.574255         2.167273        -0.110032
 C        -1.315319         3.355523         0.826356
 C        -0.441129         4.258036         0.066426
 O         0.941872         3.879847         0.326835
 C         0.969068         2.973430         1.526376
 C        -0.359171         2.327568         1.691191
 H         0.351329        -0.419045         0.565255
 H        -2.544973         0.133074         0.024879
 H        -2.495042         0.926231         1.655056
 H        -1.852074         2.144739        -1.180658
 H        -2.196870         3.790415         1.290531
 H        -0.666230         4.349424        -1.058813
 H        -0.503103         5.333251         0.396964
 H         1.870944         2.412754         1.514477
 H         1.016193         3.715645         2.427668
 H        -0.440020         2.187239         2.713437
