19
Iteration:  2666
 O         0.306547         0.298448         0.326939
 C        -0.656974         1.269104         0.655999
 C        -2.092627         0.811979         0.559928
 C        -1.690433         2.119966        -0.256342
 C        -1.357844         3.300157         0.777524
 C        -0.367588         4.373595         0.212478
 O         0.943225         3.821569         0.274496
 C         0.970283         2.985062         1.444375
 C        -0.409070         2.360154         1.642358
 H         0.945001         0.712373        -0.397076
 H        -2.179044        -0.185522         0.112676
 H        -2.541844         0.880738         1.497059
 H        -1.754616         2.026832        -1.363004
 H        -2.208884         3.987670         1.130942
 H        -0.553923         4.705269        -0.814420
 H        -0.310627         5.252512         0.860508
 H         1.708168         2.060283         1.338643
 H         1.249136         3.572051         2.334773
 H        -0.493985         2.196405         2.733760
