19
Iteration:  1018charge 0 multiplicity 1
 O         0.194370         0.315011         0.126165
 C        -0.667887         1.217767         0.605907
 C        -2.181078         0.855641         0.605383
 C        -1.682570         1.957984        -0.179700
 C        -1.321990         3.219194         0.747348
 C        -0.366875         4.354387         0.256481
 O         1.033092         3.908077         0.288157
 C         1.025421         3.146047         1.522995
 C        -0.275398         2.398127         1.560111
 H         0.378860        -0.429347         0.823609
 H        -2.227036         0.061608        -0.133132
 H        -2.934616         0.902640         1.500280
 H        -1.856724         2.121561        -1.252573
 H        -2.187048         3.618108         1.337276
 H        -0.571739         4.751222        -0.726545
 H        -0.418600         5.171308         0.992280
 H         1.978228         2.431760         1.682398
 H         1.015590         3.650291         2.495246
 H        -0.558694         2.137862         2.705554
