19
Iteration:  3276charge 0 multiplicity 1
 O         0.353717         0.239771         0.300183
 C        -0.632770         1.185066         0.629089
 C        -2.129301         0.906733         0.537138
 C        -1.524820         2.124048        -0.283545
 C        -1.324966         3.241814         0.614454
 C        -0.356405         4.455049         0.328080
 O         0.916448         3.778663         0.325443
 C         0.887437         3.106813         1.573803
 C        -0.412461         2.319119         1.610442
 H         0.230616        -0.031980        -0.605978
 H        -2.325632         0.114472        -0.181411
 H        -2.922131         1.005491         1.296529
 H        -1.549013         2.106628        -1.364400
 H        -2.279752         3.531230         1.144768
 H        -0.469816         4.936240        -0.631335
 H        -0.517687         5.289221         1.046109
 H         1.669675         2.453262         1.538717
 H         1.137165         3.734971         2.491723
 H        -0.760039         2.267984         2.635191
