19
Iteration:   208
 O         0.311836         0.512004         0.026386
 C        -0.693267         1.122112         0.730966
 C        -2.139429         0.856681         0.648802
 C        -1.628963         1.980482        -0.069152
 C        -1.339621         3.333989         0.767516
 C        -0.352465         4.383430         0.140255
 O         0.961424         3.725588         0.215315
 C         0.967101         3.059331         1.540696
 C        -0.375272         2.375572         1.657880
 H         0.441587        -0.406236         0.246659
 H        -2.540643         0.020504         0.052899
 H        -2.695480         1.002875         1.533057
 H        -1.459172         1.951375        -1.189661
 H        -2.208265         3.720956         1.424881
 H        -0.381608         4.655977        -0.860889
 H        -0.350402         5.404001         0.735657
 H         1.794076         2.374040         1.597195
 H         1.180982         3.712878         2.460564
 H        -0.799047         2.197869         2.607908
