19
Iteration:  3917
 O         0.202413         0.098868         0.364365
 C        -0.646034         1.196937         0.674522
 C        -2.175396         0.931076         0.341605
 C        -1.498981         2.118258        -0.267857
 C        -1.321301         3.263609         0.636765
 C        -0.360774         4.297566         0.074713
 O         0.846094         4.255801         0.857141
 C         1.047704         2.929752         1.293691
 C        -0.298702         2.347555         1.589567
 H        -0.318761        -0.814100         0.516041
 H        -2.348361         0.071366        -0.270854
 H        -2.863634         0.990447         1.082076
 H        -1.326005         2.148514        -1.372334
 H        -2.280268         3.765280         1.163258
 H        -0.151240         4.221745        -1.009233
 H        -0.694339         5.353456         0.147501
 H         1.668160         2.248496         0.590200
 H         1.548653         2.923119         2.327253
 H        -0.359870         2.187392         2.678920
