19
Iteration:  4094charge 0 multiplicity 1
 O         0.237135         0.113700         0.223801
 C        -0.636233         1.128451         0.529023
 C        -2.157540         0.950585         0.680032
 C        -1.650070         1.979908        -0.283937
 C        -1.234148         3.210821         0.440357
 C        -0.205376         4.369636        -0.061043
 O         0.831009         4.307325         1.007553
 C         1.044945         2.963767         1.490452
 C        -0.367581         2.344482         1.419754
 H        -0.363453        -0.667671         0.494531
 H        -2.592860         0.023739         0.296502
 H        -2.679372         1.287046         1.542334
 H        -1.909587         2.190547        -1.318164
 H        -2.194172         3.593778         0.961861
 H         0.151550         4.262787        -1.023399
 H        -0.741223         5.245537         0.292195
 H         1.810063         2.498744         0.968995
 H         1.299354         3.132081         2.572936
 H        -0.783452         2.109563         2.438336
