19
Iteration:   639
 O         0.313089         0.195105         0.387860
 C        -0.662653         1.227617         0.568408
 C        -2.222618         1.038520         0.544014
 C        -1.575042         2.073546        -0.251527
 C        -1.297568         3.204349         0.724106
 C        -0.484909         4.359396         0.332572
 O         0.873458         3.983285         0.325048
 C         1.114879         2.973262         1.327214
 C        -0.238985         2.301319         1.537708
 H        -0.000909        -0.649744         0.824577
 H        -2.640587         0.197704        -0.017339
 H        -2.695342         1.469755         1.435972
 H        -1.882421         2.254707        -1.235404
 H        -2.277541         3.565725         1.201547
 H        -0.743555         4.838040        -0.648487
 H        -0.636434         5.104459         1.223463
 H         1.938839         2.404765         0.947289
 H         1.371646         3.588798         2.295508
 H        -0.399092         2.008407         2.661857
