19
Iteration:  3515charge 0 multiplicity 1
 O         0.171995        -0.048851         0.280098
 C        -0.763920         1.111235         0.625187
 C        -2.190769         0.927280         0.686009
 C        -1.524627         1.944712        -0.299883
 C        -1.259171         3.180026         0.485556
 C        -0.356151         4.426409         0.163611
 O         0.943944         4.326951         0.732235
 C         1.063243         3.109410         1.453744
 C        -0.336512         2.304525         1.485022
 H         0.933497         0.491779        -0.277743
 H        -2.670275         0.181668         0.055048
 H        -2.898867         1.387957         1.415525
 H        -1.386744         1.803670        -1.392148
 H        -2.132837         3.685061         1.026904
 H        -0.036453         4.586671        -0.920924
 H        -0.751845         5.261060         0.564644
 H         1.550938         2.484846         0.806318
 H         1.367844         3.223635         2.378917
 H        -0.807793         2.171843         2.463190
