19
Iteration:  4292
 O         0.275582         0.181992         0.410930
 C        -0.745225         1.141610         0.627649
 C        -2.198106         0.928509         0.474498
 C        -1.548206         2.026269        -0.310636
 C        -1.290934         3.217987         0.567397
 C        -0.241017         4.368762         0.094516
 O         0.823229         4.311550         0.997906
 C         1.053756         2.881633         1.244044
 C        -0.362179         2.350070         1.471475
 H        -0.194863        -0.717314         0.233140
 H        -2.363221         0.063136        -0.084248
 H        -2.902582         1.054197         1.214621
 H        -1.486962         1.992246        -1.402430
 H        -2.142883         3.612638         1.058003
 H        -0.035165         4.204785        -0.974215
 H        -0.551647         5.415991         0.093594
 H         1.467883         2.401773         0.315359
 H         1.886445         2.744448         1.972010
 H        -0.666615         2.144120         2.527561
