19
Iteration:  3327charge 0 multiplicity 1
 O         0.347339         0.328477         0.335932
 C        -0.646301         1.205834         0.653736
 C        -2.076049         0.897341         0.433042
 C        -1.504355         2.158521        -0.211437
 C        -1.387295         3.330749         0.737768
 C        -0.408186         4.342089         0.196909
 O         0.882123         3.793529         0.384875
 C         0.971419         2.882955         1.494445
 C        -0.474850         2.369049         1.627805
 H         1.116500         0.934392        -0.075158
 H        -2.290417         0.063121        -0.225509
 H        -2.801682         0.854175         1.279845
 H        -1.732268         2.111291        -1.276764
 H        -2.282502         3.886339         1.014299
 H        -0.463987         4.612447        -0.957726
 H        -0.604537         5.297061         0.711058
 H         1.759384         2.029039         1.185411
 H         1.231113         3.437054         2.412662
 H        -0.686865         2.351070         2.710772
