19
Iteration:  4506
 O         0.187984         0.139831         0.293360
 C        -0.701325         1.116094         0.671485
 C        -2.198034         0.885945         0.494699
 C        -1.470559         2.043821        -0.296105
 C        -1.285703         3.241027         0.658857
 C        -0.359490         4.223005         0.042611
 O         0.856423         4.296884         0.842224
 C         1.077762         3.037232         1.440070
 C        -0.318109         2.311138         1.517030
 H         0.071233         0.060101        -0.728190
 H        -2.647021         0.163224        -0.136695
 H        -2.937704         1.415197         1.184746
 H        -1.164400         2.033820        -1.316678
 H        -2.078470         3.869398         1.187354
 H        -0.139680         3.943927        -1.069379
 H        -0.773243         5.230856         0.080761
 H         1.708281         2.321944         0.851275
 H         1.399202         3.288211         2.409984
 H        -0.475258         2.165579         2.541408
