19
Iteration:  2693charge 0 multiplicity 1
 O         0.386350         0.284316         0.261365
 C        -0.703844         1.198320         0.629911
 C        -2.231501         0.914501         0.559762
 C        -1.583788         2.132640        -0.205519
 C        -1.283520         3.261715         0.795047
 C        -0.473059         4.311564         0.157312
 O         0.904978         3.836032         0.310479
 C         1.016924         2.975910         1.441807
 C        -0.346878         2.392093         1.652781
 H         1.320536         0.688602         0.545838
 H        -2.629660         0.175480        -0.153005
 H        -2.885368         0.975398         1.516731
 H        -1.725452         2.095387        -1.278824
 H        -2.100604         3.738548         1.247997
 H        -0.672046         4.530331        -0.941622
 H        -0.512899         5.329087         0.684324
 H         1.753843         2.049878         1.255967
 H         1.212362         3.608203         2.347734
 H        -0.544113         2.408945         2.740593
