19
Iteration:  2532charge 0 multiplicity 1
 O         0.290249         0.283359         0.191169
 C        -0.591411         1.225906         0.725384
 C        -2.156660         1.014060         0.623985
 C        -1.464665         2.052999        -0.271096
 C        -1.345783         3.253714         0.701714
 C        -0.432589         4.325902         0.271704
 O         0.900487         3.794973         0.273045
 C         0.929805         2.995663         1.492238
 C        -0.378596         2.384844         1.646539
 H         0.949263         0.745197        -0.466582
 H        -2.536425         0.048523         0.227187
 H        -2.807134         1.120319         1.519581
 H        -1.702087         1.926245        -1.303853
 H        -2.210564         3.481775         1.175296
 H        -0.544156         4.715490        -0.697225
 H        -0.423740         5.240187         0.951470
 H         1.560134         2.070834         1.338219
 H         1.176912         3.660439         2.318382
 H        -0.624163         2.467211         2.712674
