19
Iteration:  2176charge 0 multiplicity 1
 O         0.324566         0.385030         0.205644
 C        -0.671115         1.179301         0.694432
 C        -2.174990         0.849293         0.488184
 C        -1.596520         2.126529        -0.141079
 C        -1.427766         3.286941         0.798095
 C        -0.389802         4.384173         0.165117
 O         1.028621         3.871447         0.247895
 C         0.994265         2.990469         1.515401
 C        -0.357882         2.330236         1.657426
 H         0.172417        -0.537716         0.461785
 H        -2.245076        -0.144892        -0.021170
 H        -2.854499         0.945569         1.350281
 H        -1.711294         2.248533        -1.275479
 H        -2.251572         3.703170         1.264882
 H        -0.697944         4.633192        -0.845720
 H        -0.298526         5.222845         0.798443
 H         1.737578         2.293356         1.315401
 H         1.347937         3.511272         2.398175
 H        -0.748129         2.037986         2.651640
