19
Iteration:   517charge 0 multiplicity 1
 O         0.277503         0.446111         0.125008
 C        -0.681345         1.217358         0.631986
 C        -2.049058         0.809308         0.684463
 C        -1.725432         2.086231        -0.134426
 C        -1.339642         3.277341         0.725284
 C        -0.302815         4.401081         0.265993
 O         0.983801         3.725873         0.217013
 C         0.995143         3.071134         1.484548
 C        -0.442505         2.332337         1.608572
 H         0.600975        -0.233615         0.859722
 H        -2.207205         0.018854        -0.092499
 H        -2.898587         0.682042         1.424350
 H        -1.837540         2.085244        -1.252446
 H        -2.347405         3.771817         1.065540
 H        -0.411087         4.949017        -0.662984
 H        -0.225058         5.159188         1.059261
 H         1.831259         2.300393         1.334763
 H         1.211536         3.775661         2.304046
 H        -0.738832         2.175722         2.769957
