19
Iteration:  4534charge 0 multiplicity 1
 O         0.215199         0.030464         0.353999
 C        -0.641876         1.144493         0.586489
 C        -2.111831         0.963812         0.596953
 C        -1.587625         2.023640        -0.375873
 C        -1.266470         3.260914         0.564899
 C        -0.347141         4.342996         0.129808
 O         0.906310         4.278274         0.814456
 C         0.995065         2.986051         1.443918
 C        -0.407177         2.324381         1.459531
 H         0.597513         0.217781        -0.531122
 H        -2.477934         0.041171         0.071864
 H        -2.694901         1.245277         1.423065
 H        -1.798110         1.894619        -1.477220
 H        -2.031777         3.814857         1.030782
 H        -0.151792         4.265161        -0.897142
 H        -0.775060         5.322998         0.484296
 H         1.576272         2.251538         0.870246
 H         1.593939         3.186214         2.424909
 H        -0.769297         2.043548         2.547871
