19
Iteration:   243charge 0 multiplicity 1
 O         0.259916         0.287818         0.078706
 C        -0.560845         1.277979         0.537105
 C        -2.079401         0.952812         0.654340
 C        -1.739931         2.097360        -0.184447
 C        -1.377071         3.215325         0.856150
 C        -0.419174         4.278723         0.111851
 O         0.973753         3.831008         0.324428
 C         1.027676         3.106328         1.598021
 C        -0.363220         2.344940         1.603057
 H         0.377894        -0.327974         0.731195
 H        -2.383927        -0.033965         0.260374
 H        -2.512088         1.202260         1.668805
 H        -1.714071         2.198645        -1.258652
 H        -2.040821         3.790152         1.532851
 H        -0.533640         4.306410        -0.980440
 H        -0.538106         5.332038         0.536870
 H         1.816057         2.316859         1.384199
 H         1.185456         3.785398         2.466145
 H        -0.641466         2.020762         2.574843
