19
Iteration:   240charge 0 multiplicity 1
 O         0.275473         0.299999         0.053731
 C        -0.570107         1.277837         0.532870
 C        -2.085706         0.966379         0.674346
 C        -1.704874         2.090298        -0.169229
 C        -1.362916         3.229515         0.849803
 C        -0.410254         4.239939         0.119332
 O         0.948546         3.836463         0.305045
 C         1.014971         3.085476         1.592711
 C        -0.367316         2.349190         1.628289
 H         0.381871        -0.411419         0.766410
 H        -2.399321        -0.022337         0.317098
 H        -2.510540         1.266043         1.576115
 H        -1.664511         2.233517        -1.305340
 H        -2.078267         3.874274         1.512103
 H        -0.503906         4.317691        -0.920242
 H        -0.540577         5.325277         0.516992
 H         1.756830         2.354449         1.406081
 H         1.160798         3.787250         2.518485
 H        -0.740901         2.001011         2.612421
