19
Iteration:  1673charge 0 multiplicity 1
 O         0.265228         0.302487         0.165538
 C        -0.763267         1.165198         0.657762
 C        -2.142860         0.892907         0.575873
 C        -1.585199         2.042420        -0.198453
 C        -1.295597         3.313828         0.726179
 C        -0.361126         4.430557         0.265764
 O         1.001172         3.896422         0.300257
 C         1.015635         3.007311         1.499217
 C        -0.372063         2.360715         1.591601
 H         0.196528        -0.535575         0.728021
 H        -2.231435         0.048125        -0.105014
 H        -2.793782         0.836041         1.519447
 H        -1.814043         1.961242        -1.285556
 H        -2.198313         3.590373         1.229046
 H        -0.490375         4.867397        -0.766495
 H        -0.577913         5.208724         0.967125
 H         1.846840         2.389516         1.285292
 H         1.094097         3.541148         2.408226
 H        -0.625097         2.133714         2.634210
