19
Iteration:  3720charge 0 multiplicity 1
 O         0.318036         0.312250         0.236101
 C        -0.733669         1.188036         0.631016
 C        -2.259405         0.900366         0.566034
 C        -1.643287         1.970099        -0.307569
 C        -1.280279         3.306751         0.600647
 C        -0.231053         4.223383        -0.024614
 O         0.843962         4.260901         0.976525
 C         1.055837         2.880885         1.336604
 C        -0.366839         2.351485         1.515431
 H         0.313548        -0.485018         0.894528
 H        -2.357210        -0.045669         0.109569
 H        -2.862656         1.181294         1.353669
 H        -2.004853         2.137641        -1.320927
 H        -2.061931         3.690217         1.153513
 H         0.129496         3.655924        -0.960505
 H        -0.476302         5.338711        -0.155645
 H         1.533659         2.183147         0.494124
 H         1.858472         2.970601         2.146230
 H        -0.554051         2.143651         2.582557
