19
Iteration:  4358charge 0 multiplicity 1
 O         0.173580         0.063062         0.308825
 C        -0.725657         1.138769         0.548854
 C        -2.250710         0.968069         0.485590
 C        -1.480120         2.098733        -0.299450
 C        -1.249897         3.224657         0.618027
 C        -0.304850         4.286784         0.114190
 O         0.775930         4.329416         0.933030
 C         1.107021         2.972214         1.356715
 C        -0.311837         2.279407         1.417326
 H         0.505857        -0.069306         1.146117
 H        -2.440442         0.146997        -0.121685
 H        -2.787538         0.998854         1.330317
 H        -1.296599         2.093478        -1.363259
 H        -2.063368         3.510625         1.178663
 H         0.047412         4.183768        -0.914887
 H        -0.789147         5.244537        -0.037416
 H         1.861241         2.504271         0.688990
 H         1.658550         3.008889         2.341279
 H        -0.696276         2.257146         2.494193
