19
Iteration:  2022charge 0 multiplicity 1
 O         0.257681         0.150867         0.298924
 C        -0.644535         1.205191         0.582615
 C        -2.100017         0.955431         0.583315
 C        -1.639204         2.153208        -0.255996
 C        -1.340918         3.228095         0.680045
 C        -0.467966         4.390240         0.282563
 O         0.997999         3.981789         0.311210
 C         1.070426         3.043773         1.470839
 C        -0.332846         2.283401         1.580901
 H        -0.007380        -0.565473         1.022142
 H        -2.429549         0.201624        -0.168515
 H        -2.849035         1.001552         1.398175
 H        -1.793921         2.135894        -1.327849
 H        -2.012699         3.849157         1.191401
 H        -0.630752         4.626115        -0.773296
 H        -0.708799         5.302070         0.917010
 H         1.889899         2.438019         1.304071
 H         1.070659         3.597774         2.463602
 H        -0.540643         1.952689         2.604057
