19
Iteration:  3260charge 0 multiplicity 1
 O         0.328803         0.124999         0.241802
 C        -0.594787         1.202135         0.608418
 C        -2.076402         0.980208         0.428236
 C        -1.444428         2.100573        -0.283039
 C        -1.337176         3.319243         0.786389
 C        -0.449643         4.354067         0.219786
 O         0.883361         3.842415         0.345152
 C         0.943698         3.071535         1.621218
 C        -0.439639         2.417360         1.688878
 H        -0.047143        -0.273346        -0.483533
 H        -2.398244         0.004758         0.027010
 H        -2.720058         1.209361         1.287244
 H        -1.453611         2.234786        -1.382114
 H        -2.229903         3.713843         1.225447
 H        -0.709547         4.608769        -0.869235
 H        -0.408022         5.301295         0.810038
 H         1.893690         2.351880         1.606250
 H         0.901024         3.795196         2.396960
 H        -0.825065         2.002002         2.645663
