19
Iteration:  3953charge 0 multiplicity 1
 O         0.156694         0.029528         0.238582
 C        -0.671758         1.136425         0.675202
 C        -2.234721         1.011464         0.439619
 C        -1.436344         1.941115        -0.366082
 C        -1.283205         3.182376         0.572889
 C        -0.402452         4.377012         0.163192
 O         0.985887         4.321816         0.799514
 C         1.000991         3.029385         1.384142
 C        -0.347765         2.335192         1.591883
 H         0.389808        -0.467708         1.140529
 H        -2.575177         0.126779        -0.092885
 H        -2.886734         1.291836         1.317751
 H        -1.343182         2.081283        -1.431348
 H        -2.229944         3.633484         0.921619
 H        -0.126598         4.406541        -0.883899
 H        -0.947773         5.166353         0.610381
 H         1.664701         2.420131         0.648615
 H         1.436764         3.106986         2.479959
 H        -0.549752         2.238180         2.649266
