19
Iteration:   550charge 0 multiplicity 1
 O         0.376648         0.354026         0.234101
 C        -0.657470         1.173241         0.623931
 C        -2.109714         0.942990         0.563519
 C        -1.598491         2.220746        -0.148423
 C        -1.360618         3.278149         0.842294
 C        -0.439615         4.352164         0.223201
 O         0.912271         3.755020         0.200354
 C         1.048506         3.000294         1.399753
 C        -0.431279         2.340301         1.673126
 H         0.452035        -0.442688         0.818107
 H        -2.412099         0.237191        -0.218894
 H        -2.883603         1.047371         1.397937
 H        -1.645730         2.262300        -1.252343
 H        -2.359519         3.683799         1.279328
 H        -0.821071         4.564159        -0.782647
 H        -0.327774         5.242805         0.876740
 H         1.777662         2.140197         1.191575
 H         1.435902         3.626790         2.297097
 H        -0.640028         1.973769         2.796337
