19
Iteration:  3963
 O         0.193999         0.039972         0.262782
 C        -0.704013         1.118055         0.574725
 C        -2.215321         1.009062         0.546568
 C        -1.427728         1.998341        -0.350341
 C        -1.271180         3.215016         0.536770
 C        -0.374822         4.388933         0.163396
 O         0.903165         4.267413         0.838911
 C         1.073698         2.970180         1.390925
 C        -0.396467         2.348810         1.512615
 H         0.520896        -0.342126         1.175847
 H        -2.451486         0.030507         0.206974
 H        -2.960248         1.543182         1.113500
 H        -1.355493         1.894922        -1.427962
 H        -2.315121         3.521083         0.899170
 H        -0.434372         4.625615        -0.906152
 H        -0.771189         5.305180         0.602930
 H         1.808604         2.297170         0.803607
 H         1.582958         3.232894         2.405185
 H        -0.779615         2.171065         2.504381
