19
Iteration:   992
 O         0.289236         0.186205         0.227715
 C        -0.669242         1.142055         0.586441
 C        -2.126255         0.942856         0.483642
 C        -1.613263         2.178938        -0.155341
 C        -1.263653         3.266031         0.876765
 C        -0.482058         4.402431         0.201377
 O         0.936481         3.866373         0.240059
 C         1.037528         3.097820         1.463311
 C        -0.360877         2.293999         1.642492
 H         0.455812        -0.456168         0.985127
 H        -2.232368         0.065579        -0.192675
 H        -2.705568         0.938446         1.332340
 H        -1.790988         2.580524        -1.168232
 H        -2.155946         3.788348         1.409451
 H        -0.780302         4.653747        -0.870910
 H        -0.507740         5.376054         0.784720
 H         1.827777         2.492225         1.430283
 H         1.143131         3.591318         2.447189
 H        -0.519173         2.008396         2.655039
