19
Iteration:  2126
 O         0.402686         0.293640         0.187258
 C        -0.619643         1.236840         0.595550
 C        -2.163039         0.985811         0.578320
 C        -1.550785         2.167005        -0.238046
 C        -1.392655         3.235751         0.833983
 C        -0.382728         4.374527         0.301559
 O         0.900038         3.725334         0.217003
 C         0.919870         3.012729         1.435044
 C        -0.405648         2.332363         1.648524
 H         0.570121        -0.277326         0.956189
 H        -2.522952         0.071622         0.023873
 H        -2.749177         1.409045         1.392700
 H        -1.382641         2.115033        -1.290111
 H        -2.251875         3.901305         1.260606
 H        -0.735719         4.597906        -0.728611
 H        -0.256150         5.298559         0.941597
 H         1.834538         2.336644         1.641983
 H         1.041343         3.787336         2.258695
 H        -0.643331         2.082755         2.693315
