19
Iteration:  1244
 O         0.273845         0.182967         0.172642
 C        -0.679688         1.120424         0.677486
 C        -2.217217         0.933666         0.630459
 C        -1.517155         2.061295        -0.164044
 C        -1.262273         3.320261         0.659444
 C        -0.434337         4.428977         0.249311
 O         0.922742         3.993497         0.353351
 C         0.990522         2.998966         1.416763
 C        -0.271940         2.353509         1.568376
 H         0.113719        -0.666208         0.547486
 H        -2.446537         0.004203         0.008719
 H        -2.843693         1.089878         1.558019
 H        -1.755910         2.165398        -1.191004
 H        -2.201759         3.550916         1.176679
 H        -0.574598         4.723188        -0.908582
 H        -0.640743         5.229556         0.975555
 H         1.873758         2.401365         1.322924
 H         1.285769         3.473438         2.419977
 H        -0.634572         2.375678         2.704006
