19
Iteration:  3438charge 0 multiplicity 1
 O         0.320251         0.307876         0.302775
 C        -0.756852         1.157354         0.716472
 C        -2.210515         0.899350         0.495513
 C        -1.613937         2.070253        -0.253112
 C        -1.291911         3.226755         0.679310
 C        -0.342169         4.284998         0.168940
 O         0.990599         4.104550         0.565810
 C         1.008737         2.922691         1.397409
 C        -0.478165         2.358689         1.579334
 H         1.036349         0.824903         0.056704
 H        -2.080099         0.030442        -0.223641
 H        -2.991334         0.845159         1.305281
 H        -1.503546         1.889598        -1.356890
 H        -2.163859         3.763622         1.060822
 H        -0.249018         4.206950        -0.975908
 H        -0.668841         5.239046         0.302408
 H         1.794028         2.145462         1.038959
 H         1.327065         3.069814         2.362122
 H        -0.650953         2.126043         2.631682
