19
Iteration:  3043
 O         0.290797         0.291834         0.334994
 C        -0.659314         1.291270         0.589011
 C        -2.096038         0.847425         0.532699
 C        -1.549617         2.121954        -0.274976
 C        -1.417896         3.303128         0.669660
 C        -0.401694         4.406159         0.237019
 O         1.008822         3.820618         0.423122
 C         0.959958         2.951482         1.524513
 C        -0.427485         2.358353         1.597611
 H         0.508604         0.248975        -0.668127
 H        -2.072634        -0.128571         0.039021
 H        -2.836483         0.777767         1.370899
 H        -1.463599         2.180265        -1.358528
 H        -2.396336         3.752174         1.219294
 H        -0.510864         4.912291        -0.799042
 H        -0.535863         5.282733         0.909533
 H         1.528677         2.145338         1.200835
 H         1.505619         3.406207         2.373783
 H        -0.803971         2.039483         2.575014
