19
Iteration:  1367
 O         0.407317         0.322686         0.242885
 C        -0.673468         1.189046         0.616054
 C        -2.093723         0.867346         0.567689
 C        -1.703921         2.191758        -0.124506
 C        -1.383450         3.289057         0.807659
 C        -0.334015         4.415502         0.252818
 O         1.029851         3.778514         0.194695
 C         0.894000         3.008508         1.459496
 C        -0.419716         2.332744         1.528706
 H         0.306762        -0.418113         0.991543
 H        -2.366128         0.280894        -0.282054
 H        -2.814610         0.785876         1.435506
 H        -1.829386         2.162988        -1.242066
 H        -2.132086         3.754777         1.539615
 H        -0.816007         4.795575        -0.737199
 H        -0.309317         5.192151         0.998067
 H         1.724385         2.246047         1.420227
 H         1.138954         3.668114         2.358666
 H        -0.706555         2.157866         2.699316
