19
Iteration:  1316charge 0 multiplicity 1
 O         0.431819         0.477557         0.105385
 C        -0.598368         1.250363         0.703018
 C        -2.229757         1.008229         0.534692
 C        -1.409426         2.114136        -0.113151
 C        -1.332802         3.268702         0.841643
 C        -0.414285         4.330397         0.157938
 O         0.869817         3.662338         0.145904
 C         0.899382         2.901241         1.512485
 C        -0.486137         2.340260         1.770431
 H         0.388763        -0.337631         0.524646
 H        -2.430019         0.042985         0.164127
 H        -2.827524         1.323940         1.335426
 H        -1.345902         2.355729        -1.191472
 H        -2.206265         3.834043         1.200689
 H        -0.853706         4.424016        -0.733709
 H        -0.489443         5.306692         0.756264
 H         1.766805         2.215436         1.490918
 H         1.214095         3.568171         2.267357
 H        -0.572247         2.239396         2.759866
