19
Iteration:   865charge 0 multiplicity 1
 O         0.228801         0.242200         0.138618
 C        -0.690223         1.140551         0.712095
 C        -2.221960         0.911356         0.556239
 C        -1.484259         2.027607        -0.118247
 C        -1.194963         3.231159         0.738682
 C        -0.409149         4.446256         0.265054
 O         0.914447         3.928256         0.277873
 C         0.988513         3.155159         1.441535
 C        -0.295033         2.322948         1.625591
 H        -0.232390        -0.694795         0.236459
 H        -2.279140        -0.081938        -0.017450
 H        -2.971652         0.980222         1.400266
 H        -1.443316         1.800996        -1.176939
 H        -1.990793         3.692394         1.232350
 H        -0.708170         4.652920        -0.762574
 H        -0.633688         5.304045         1.012195
 H         1.895724         2.428892         1.254642
 H         0.983005         3.796804         2.332961
 H        -0.610513         2.349465         2.657568
