19
Iteration:   837charge 0 multiplicity 1
 O         0.263823         0.209673         0.106110
 C        -0.633776         1.256860         0.562726
 C        -2.115136         0.886777         0.656159
 C        -1.667953         2.020343        -0.185339
 C        -1.382805         3.263047         0.721096
 C        -0.387036         4.428047         0.290772
 O         1.032510         3.868503         0.288806
 C         1.008336         3.098276         1.499565
 C        -0.380792         2.352420         1.608305
 H         0.463637        -0.304956         0.974006
 H        -2.303769        -0.029950         0.165937
 H        -2.705125         1.211476         1.530901
 H        -1.965056         1.850757        -1.265759
 H        -2.307404         3.812793         1.187609
 H        -0.543693         4.699756        -0.788003
 H        -0.431146         5.287020         0.939290
 H         1.831337         2.389598         1.453244
 H         1.217351         3.765176         2.408059
 H        -0.673156         2.169258         2.712941
