19
Iteration:  3377charge 0 multiplicity 1
 O         0.250559         0.102394         0.226636
 C        -0.655113         1.237243         0.570982
 C        -2.093772         0.881127         0.530994
 C        -1.546784         2.124825        -0.288022
 C        -1.325909         3.229740         0.712965
 C        -0.379648         4.391621         0.233567
 O         0.991968         3.777406         0.342034
 C         0.928503         3.260746         1.703013
 C        -0.392521         2.314595         1.590510
 H         0.770308         0.633598        -0.331472
 H        -2.567309         0.158968        -0.135361
 H        -2.778670         0.950228         1.385445
 H        -1.486014         2.159655        -1.378700
 H        -2.238048         3.677489         1.235098
 H        -0.470210         4.701756        -0.769897
 H        -0.593096         5.243186         1.010285
 H         1.807486         2.768518         1.860861
 H         0.550685         4.135400         2.264183
 H        -0.677197         1.972762         2.602703
