19
Iteration:   764
 O         0.208114         0.482863         0.128417
 C        -0.685993         1.248908         0.730600
 C        -2.084902         0.808060         0.577657
 C        -1.594194         2.097975        -0.154785
 C        -1.392966         3.286900         0.742386
 C        -0.358160         4.331273         0.223004
 O         0.973027         3.733645         0.232578
 C         1.036126         3.012515         1.508364
 C        -0.384422         2.397697         1.684247
 H         0.175509        -0.464246         0.247757
 H        -2.028099         0.142357        -0.211713
 H        -2.653976         0.499672         1.421153
 H        -1.608704         1.974009        -1.245462
 H        -2.176514         3.853954         1.166726
 H        -0.743433         4.490483        -0.818798
 H        -0.335059         5.350328         0.755095
 H         1.926023         2.354014         1.586871
 H         1.273334         3.747375         2.322176
 H        -0.545463         2.166227         2.747887
