19
Iteration:  1897charge 0 multiplicity 1
 O         0.324194         0.389771         0.175851
 C        -0.660116         1.279481         0.620509
 C        -2.143267         0.941146         0.616399
 C        -1.550937         2.101367        -0.203833
 C        -1.334305         3.260979         0.698518
 C        -0.361046         4.336595         0.251032
 O         0.928074         3.735984         0.224066
 C         0.975036         3.014170         1.512307
 C        -0.426067         2.330527         1.663804
 H         0.371408        -0.560377         0.521720
 H        -2.499883         0.076297         0.125172
 H        -2.699331         1.274328         1.512491
 H        -1.759863         2.147629        -1.273004
 H        -2.242104         3.721082         1.204101
 H        -0.543456         4.764703        -0.752000
 H        -0.424548         5.049635         1.109836
 H         1.906127         2.210757         1.553498
 H         1.152084         3.785147         2.376096
 H        -0.674581         2.121071         2.796003
