19
Iteration:  3975
 O         0.185711         0.120643         0.319531
 C        -0.673223         1.137264         0.614854
 C        -2.158843         0.964768         0.572491
 C        -1.453200         1.989071        -0.439831
 C        -1.227585         3.249904         0.510360
 C        -0.392392         4.488683         0.189659
 O         0.823176         4.208693         0.818151
 C         1.041296         2.879659         1.434115
 C        -0.347419         2.322095         1.433173
 H         0.510528        -0.249991         1.093828
 H        -2.667678         0.136458         0.051265
 H        -2.683743         1.338505         1.504516
 H        -1.684911         1.956008        -1.499297
 H        -2.130117         3.600050         1.082515
 H        -0.047480         4.414495        -0.868986
 H        -0.793037         5.428956         0.512308
 H         1.683511         2.232755         0.696810
 H         1.526375         2.917975         2.500553
 H        -0.712084         2.357853         2.445731
