19
Iteration:   855charge 0 multiplicity 1
 O         0.209634         0.241734         0.111416
 C        -0.716352         1.091969         0.741209
 C        -2.176176         0.839764         0.621949
 C        -1.534143         2.042254        -0.156720
 C        -1.260212         3.272098         0.708103
 C        -0.361291         4.379951         0.253326
 O         0.942424         3.947140         0.277451
 C         0.972302         3.150627         1.472954
 C        -0.337445         2.384023         1.569955
 H         0.118228        -0.720874         0.422682
 H        -2.394405         0.011542        -0.144105
 H        -2.742305         0.840308         1.613303
 H        -1.517450         2.258377        -1.236495
 H        -2.145618         3.558308         1.216662
 H        -0.409168         4.979532        -0.634221
 H        -0.388465         5.200385         1.081650
 H         2.023628         2.590928         1.501798
 H         1.117837         3.806668         2.321507
 H        -0.527065         2.297432         2.586398
