19
Iteration:  4695charge 0 multiplicity 1
 O         0.206869         0.070634         0.365668
 C        -0.711877         1.125113         0.593657
 C        -2.229444         0.972634         0.503570
 C        -1.586526         2.009762        -0.286900
 C        -1.249480         3.281805         0.638826
 C        -0.295090         4.244805         0.013241
 O         0.774467         4.413424         0.945509
 C         1.098588         3.000880         1.290622
 C        -0.250321         2.266197         1.519946
 H        -0.021566        -0.334429        -0.451982
 H        -2.198477        -0.091390         0.121306
 H        -2.780263         1.073620         1.507699
 H        -1.639749         1.936278        -1.385674
 H        -2.107309         3.766579         1.276898
 H         0.207684         3.705633        -0.843213
 H        -0.684509         5.298643        -0.067119
 H         1.681391         2.506326         0.404739
 H         1.697891         3.118710         2.143762
 H        -0.564095         2.249186         2.557665
