19
Iteration:  3232charge 0 multiplicity 1
 O         0.269914         0.263866         0.300617
 C        -0.655447         1.186139         0.638828
 C        -2.140612         0.971919         0.375483
 C        -1.535615         2.111751        -0.271228
 C        -1.238935         3.230258         0.773163
 C        -0.439379         4.326452         0.157759
 O         0.924858         3.955653         0.409254
 C         0.976970         3.066232         1.584190
 C        -0.341495         2.284467         1.636010
 H        -0.125271        -0.575115         0.138166
 H        -2.236405         0.106907        -0.276105
 H        -2.889101         0.874765         1.174533
 H        -1.453572         2.146489        -1.341497
 H        -2.217633         3.647555         1.251995
 H        -0.655924         4.537968        -0.876804
 H        -0.601741         5.315346         0.611470
 H         1.851172         2.506530         1.576327
 H         0.925759         3.697633         2.551390
 H        -0.602480         1.881105         2.596565
