19
Iteration:   696charge 0 multiplicity 1
 O         0.239221         0.324781         0.177260
 C        -0.701423         1.202366         0.759492
 C        -2.105177         0.880719         0.516447
 C        -1.631999         2.054359        -0.214573
 C        -1.312151         3.278110         0.820585
 C        -0.394497         4.390687         0.310721
 O         0.948317         3.887302         0.243531
 C         1.055178         2.974773         1.384584
 C        -0.353892         2.417998         1.611073
 H         0.280955        -0.505694         0.809384
 H        -2.255782         0.008686        -0.145622
 H        -2.741322         0.908334         1.348348
 H        -1.511162         2.002602        -1.337782
 H        -2.248292         3.577607         1.339095
 H        -0.674415         4.636374        -0.762986
 H        -0.521927         5.349459         0.929272
 H         1.735440         2.218316         1.218990
 H         1.464685         3.477840         2.359426
 H        -0.590987         2.323991         2.731801
