19
Iteration:   668charge 0 multiplicity 1
 O         0.204190         0.223777         0.173212
 C        -0.645936         1.163322         0.750877
 C        -2.155125         0.870313         0.496574
 C        -1.452202         2.004402        -0.132666
 C        -1.301547         3.326323         0.791874
 C        -0.422557         4.471880         0.259524
 O         0.893476         4.000519         0.307737
 C         1.010087         2.943678         1.295422
 C        -0.361912         2.397670         1.693102
 H         0.232320        -0.578014         0.878691
 H        -2.489237         0.110722        -0.198253
 H        -2.739010         1.217478         1.422953
 H        -1.333330         1.928470        -1.223299
 H        -2.273784         3.674752         1.121872
 H        -0.647222         4.728644        -0.761574
 H        -0.604287         5.351493         0.863428
 H         1.783037         2.125173         0.949151
 H         1.528902         3.277454         2.147934
 H        -0.461230         2.222746         2.734745
