19
Iteration:  1339
 O         0.307073         0.507083         0.177968
 C        -0.701860         1.251100         0.738283
 C        -2.087279         0.843475         0.468100
 C        -1.587489         2.150230        -0.189024
 C        -1.400045         3.265038         0.795471
 C        -0.326416         4.315842         0.250331
 O         0.865292         3.602532         0.242184
 C         1.031142         3.049862         1.438594
 C        -0.392999         2.408567         1.715422
 H         0.297082        -0.433563         0.662265
 H        -2.202647         0.022635        -0.260105
 H        -2.770506         0.834839         1.275548
 H        -1.568958         2.195786        -1.259673
 H        -2.206041         3.784753         1.268521
 H        -0.623164         4.533137        -0.698783
 H        -0.274270         5.239722         0.917387
 H         1.871696         2.368938         1.312874
 H         1.418866         3.701220         2.198002
 H        -0.513963         2.362467         2.740277
