19
Iteration:   234
 O         0.318941         0.320855         0.004109
 C        -0.626728         1.272600         0.556137
 C        -2.095853         0.970836         0.714842
 C        -1.591861         2.096988        -0.150643
 C        -1.321405         3.293385         0.814668
 C        -0.388628         4.179772         0.154490
 O         0.898946         3.833046         0.286124
 C         0.948976         3.055094         1.566238
 C        -0.360953         2.355757         1.687710
 H         0.341405        -0.357487         0.609306
 H        -2.451339         0.009978         0.338328
 H        -2.693328         1.385773         1.620331
 H        -1.725526         2.275498        -1.173263
 H        -2.165253         3.783538         1.227959
 H        -0.568324         4.294114        -0.995476
 H        -0.568368         5.181274         0.497385
 H         1.868477         2.353581         1.528214
 H         1.121313         3.652272         2.415291
 H        -0.793068         2.039617         2.645892
