19
Iteration:  3970charge 0 multiplicity 1
 O         0.186727         0.086644         0.293223
 C        -0.680578         1.119861         0.587613
 C        -2.190909         0.980030         0.577856
 C        -1.433764         2.013428        -0.399113
 C        -1.242039         3.233372         0.516910
 C        -0.376937         4.435056         0.195166
 O         0.828170         4.237275         0.818691
 C         1.088531         2.917447         1.428208
 C        -0.382158         2.330861         1.447647
 H         0.571789        -0.320547         1.171538
 H        -2.544896         0.039033         0.169482
 H        -2.837558         1.504091         1.252207
 H        -1.540696         1.867795        -1.494839
 H        -2.207404         3.554550         1.030229
 H        -0.263560         4.588704        -0.929629
 H        -0.716721         5.501860         0.501578
 H         1.716191         2.244034         0.923926
 H         1.603179         2.960934         2.334437
 H        -0.797069         2.295150         2.499083
