19
Iteration:  2753charge 0 multiplicity 1
 O         0.274077         0.072693         0.292902
 C        -0.621804         1.169379         0.580003
 C        -2.137152         0.916715         0.643791
 C        -1.583011         2.093685        -0.273875
 C        -1.401066         3.273608         0.766704
 C        -0.375347         4.455156         0.231532
 O         0.937801         3.846104         0.275772
 C         1.017883         3.142858         1.489487
 C        -0.352060         2.367833         1.635045
 H         0.894277         0.303428        -0.469461
 H        -2.410600         0.194806        -0.114740
 H        -2.902529         1.148740         1.322555
 H        -1.754650         2.060998        -1.339037
 H        -2.473875         3.578136         1.213465
 H        -0.521703         4.879416        -0.748712
 H        -0.521076         5.171928         1.062548
 H         1.854583         2.633466         1.558467
 H         1.138259         3.845774         2.368060
 H        -0.649419         2.212072         2.667377
