19
Iteration:  3306
 O         0.444456         0.404539         0.426812
 C        -0.684376         1.203972         0.593255
 C        -2.176854         0.880604         0.495689
 C        -1.691857         2.086012        -0.321493
 C        -1.362712         3.231572         0.657089
 C        -0.352812         4.392734         0.335585
 O         1.015683         3.847071         0.329099
 C         0.951099         2.925843         1.490533
 C        -0.484376         2.354548         1.601105
 H         0.900353         0.638420        -0.401661
 H        -2.357189        -0.057841        -0.011638
 H        -2.936616         0.917212         1.306840
 H        -1.534338         2.082670        -1.391078
 H        -2.194529         3.583875         1.151509
 H        -0.563388         4.785978        -0.742928
 H        -0.362560         5.235162         1.060909
 H         1.524796         2.055907         1.174628
 H         1.263522         3.419954         2.404826
 H        -0.864865         2.183095         2.629592
