19
Iteration:  2149charge 0 multiplicity 1
 O         0.235583         0.387570         0.136742
 C        -0.663733         1.173290         0.734286
 C        -2.113799         0.867153         0.504365
 C        -1.469076         2.160070        -0.156961
 C        -1.281856         3.256651         0.734627
 C        -0.451035         4.381949         0.207240
 O         0.871954         3.709176         0.270358
 C         0.982976         3.072004         1.506478
 C        -0.328108         2.398183         1.724394
 H         0.268969        -0.486289         0.557884
 H        -2.152634         0.112842        -0.275348
 H        -2.927643         0.907010         1.217630
 H        -1.558912         2.164310        -1.205226
 H        -2.268117         3.750752         1.169107
 H        -0.712939         4.670567        -0.834871
 H        -0.322715         5.259777         0.876386
 H         1.819798         2.220548         1.342639
 H         1.417211         3.672259         2.342055
 H        -0.777876         2.242322         2.729324
