19
Iteration:  4847
 O         0.264665         0.265456         0.208731
 C        -0.741634         1.111798         0.631422
 C        -2.117835         0.890040         0.516054
 C        -1.512383         2.026959        -0.270388
 C        -1.328560         3.213792         0.675587
 C        -0.376973         4.358965         0.097532
 O         0.978105         4.160576         0.603593
 C         1.045851         2.989435         1.471813
 C        -0.434254         2.313803         1.613300
 H         0.338695        -0.352365         0.899088
 H        -2.315058         0.129524        -0.206151
 H        -3.073018         1.159122         1.171190
 H        -1.729511         2.067315        -1.311131
 H        -2.171804         3.563038         1.205026
 H        -0.419933         4.419831        -0.981457
 H        -0.776591         5.384900         0.383027
 H         1.871664         2.240902         1.272004
 H         1.236495         3.395622         2.519360
 H        -0.640375         2.099488         2.722106
