19
Iteration:  1953
 O         0.375161         0.368830         0.253663
 C        -0.723650         1.280938         0.683632
 C        -2.196225         0.984903         0.498727
 C        -1.494743         2.103110        -0.256394
 C        -1.283734         3.265746         0.845861
 C        -0.459663         4.348337         0.224642
 O         0.878841         3.756512         0.255780
 C         1.042185         2.948118         1.454630
 C        -0.407724         2.364873         1.677523
 H         0.485375        -0.430625         0.700489
 H        -2.368728         0.194329        -0.216316
 H        -2.961137         1.283469         1.218421
 H        -1.299282         2.092340        -1.330763
 H        -2.226521         3.458218         1.446142
 H        -0.828451         4.436941        -0.833442
 H        -0.519846         5.406433         0.636600
 H         1.652697         1.963873         1.055091
 H         1.567925         3.520482         2.283764
 H        -0.671407         2.292918         2.834226
