19
Iteration:   714
 O         0.397123         0.371512         0.246232
 C        -0.699572         1.234695         0.536804
 C        -2.220213         0.932365         0.635252
 C        -1.570117         2.145046        -0.183245
 C        -1.336740         3.259329         0.787016
 C        -0.389371         4.352747         0.250926
 O         0.919212         3.800213         0.244157
 C         0.967165         3.017953         1.406402
 C        -0.325155         2.237474         1.615388
 H         0.311391        -0.499620         0.792127
 H        -2.547786         0.040863         0.022650
 H        -2.861007         1.304003         1.468060
 H        -1.737947         2.359907        -1.191321
 H        -2.227613         3.692083         1.346970
 H        -0.640243         4.778899        -0.700354
 H        -0.399028         5.146911         0.996128
 H         1.938271         2.445728         1.368103
 H         1.149782         3.645870         2.274748
 H        -0.543502         1.954686         2.673758
