19
Iteration:   376
 O         0.263864         0.278910         0.305962
 C        -0.661116         1.258335         0.668432
 C        -2.114819         0.966494         0.478646
 C        -1.439562         2.112081        -0.193316
 C        -1.388868         3.251241         0.901735
 C        -0.439901         4.343470         0.326579
 O         0.810882         3.832148         0.204435
 C         1.081578         2.983982         1.310468
 C        -0.329110         2.360907         1.605952
 H         0.124188        -0.464015         0.861087
 H        -2.138417         0.110200        -0.260342
 H        -3.050732         0.976619         1.100769
 H        -1.348622         2.312695        -1.257646
 H        -2.295639         3.668743         1.418094
 H        -0.695663         4.915544        -0.617075
 H        -0.473113         5.168868         1.135029
 H         1.829038         2.227795         0.892369
 H         1.467846         3.586166         2.231760
 H        -0.504488         2.175043         2.633996
