19
Iteration:   456charge 0 multiplicity 1
 O         0.277640         0.278307         0.083441
 C        -0.639212         1.255186         0.579734
 C        -2.100457         0.821802         0.622181
 C        -1.688768         2.101838        -0.084396
 C        -1.346417         3.280304         0.864861
 C        -0.375320         4.304526         0.130006
 O         1.005521         3.867090         0.346528
 C         0.964422         3.084876         1.464192
 C        -0.351592         2.405249         1.609077
 H         0.173081        -0.431698         0.725749
 H        -2.337180         0.110089        -0.122335
 H        -2.675123         0.844686         1.539895
 H        -1.728793         2.263648        -1.158007
 H        -2.144256         3.799443         1.304120
 H        -0.529428         4.261190        -0.978732
 H        -0.576068         5.315991         0.568689
 H         1.728646         2.333332         1.434334
 H         1.152230         3.696349         2.462383
 H        -0.531024         2.210395         2.600012
