19
Iteration:  2727charge 0 multiplicity 1
 O         0.146487         0.214986         0.227885
 C        -0.646212         1.230925         0.631854
 C        -2.075689         0.887424         0.609538
 C        -1.505828         2.087465        -0.223634
 C        -1.288765         3.280306         0.791586
 C        -0.434388         4.358013         0.221409
 O         0.954947         3.835019         0.256448
 C         0.918256         3.081210         1.449231
 C        -0.322426         2.393620         1.605149
 H         1.136406         0.154549         0.513776
 H        -2.187306         0.099552        -0.154212
 H        -2.766881         0.872360         1.527613
 H        -1.639307         2.058082        -1.332982
 H        -2.231987         3.634054         1.159589
 H        -0.789963         4.665905        -0.759259
 H        -0.648421         5.153259         1.009604
 H         1.957903         2.471013         1.701529
 H         0.910620         3.798935         2.365937
 H        -0.496559         2.233187         2.679387
