19
Iteration:   729charge 0 multiplicity 1
 O         0.495427         0.308828         0.183488
 C        -0.637039         1.148559         0.609125
 C        -2.153685         1.093576         0.640037
 C        -1.649195         2.197377        -0.209424
 C        -1.341980         3.282445         0.784039
 C        -0.419165         4.357349         0.295692
 O         0.860282         3.681047         0.201227
 C         0.993731         3.017091         1.540546
 C        -0.375488         2.327546         1.553836
 H         0.344833        -0.617790         0.570411
 H        -2.631110         0.388009        -0.005646
 H        -2.554373         1.032316         1.606358
 H        -2.034319         2.221740        -1.291729
 H        -2.298454         3.646890         1.261532
 H        -0.650393         4.623282        -0.787777
 H        -0.369452         5.323712         0.920770
 H         1.764717         2.352578         1.474511
 H         0.995070         3.812944         2.349110
 H        -0.644091         2.060716         2.660906
