19
Iteration:  1909charge 0 multiplicity 1
 O         0.344995         0.377734         0.219838
 C        -0.671269         1.201275         0.621233
 C        -2.156370         0.841451         0.528987
 C        -1.692753         2.097941        -0.194417
 C        -1.325507         3.320282         0.756908
 C        -0.317887         4.392753         0.284694
 O         0.952297         3.716388         0.179132
 C         0.975496         3.004129         1.545807
 C        -0.376550         2.424154         1.621278
 H         0.207104        -0.279444         0.831949
 H        -2.220454        -0.077100        -0.012865
 H        -2.720152         0.809014         1.506932
 H        -1.799880         2.344865        -1.259040
 H        -2.287585         3.730173         1.249462
 H        -0.582919         5.004012        -0.621293
 H        -0.239804         5.226711         1.031231
 H         1.880460         2.125522         1.474865
 H         1.254949         3.887857         2.257411
 H        -0.856282         2.109628         2.661688
