19
Iteration:  1035charge 0 multiplicity 1
 O         0.285867         0.302569         0.000990
 C        -0.699052         1.167676         0.667384
 C        -2.110582         0.891770         0.747234
 C        -1.581855         2.074081        -0.200813
 C        -1.322925         3.287857         0.653833
 C        -0.369773         4.353463         0.226695
 O         0.963629         3.882645         0.355131
 C         0.993072         3.055844         1.499807
 C        -0.406519         2.346387         1.661940
 H         0.418461        -0.591272         0.561857
 H        -2.579017        -0.050914         0.412693
 H        -2.564202         1.271206         1.592878
 H        -1.608445         1.996401        -1.313401
 H        -2.277882         3.630786         1.112749
 H        -0.498917         4.753322        -0.822444
 H        -0.554798         5.268505         0.860578
 H         1.774219         2.423918         1.369408
 H         1.293600         3.750272         2.345199
 H        -0.809750         2.233155         2.589609
