19
Iteration:  3440charge 0 multiplicity 1
 O         0.319491         0.301460         0.310473
 C        -0.776008         1.126305         0.712095
 C        -2.180219         0.910391         0.501086
 C        -1.618922         2.093552        -0.247000
 C        -1.299435         3.237145         0.686382
 C        -0.352308         4.265711         0.149595
 O         0.997454         4.107797         0.579281
 C         1.008978         2.925463         1.383601
 C        -0.473486         2.355272         1.577288
 H         1.068733         0.786704         0.051279
 H        -2.093377         0.097587        -0.271397
 H        -3.048281         0.797192         1.238048
 H        -1.466871         1.908191        -1.329417
 H        -2.116552         3.717696         1.063265
 H        -0.291466         4.209095        -0.980783
 H        -0.684767         5.297660         0.301334
 H         1.799249         2.132930         0.940815
 H         1.310479         3.182604         2.463553
 H        -0.645576         2.136176         2.636894
