19
Iteration:  2278charge 0 multiplicity 1
 O         0.266518         0.251082         0.242679
 C        -0.662475         1.158808         0.621327
 C        -2.142749         0.992196         0.478393
 C        -1.465795         2.183988        -0.202926
 C        -1.280347         3.228290         0.809610
 C        -0.472510         4.326783         0.241583
 O         0.841137         3.823567         0.273708
 C         1.028426         3.046390         1.479047
 C        -0.333329         2.357631         1.629106
 H         0.559337        -0.266760         1.032829
 H        -2.427679         0.067951        -0.086042
 H        -2.944613         1.110415         1.328638
 H        -1.486324         2.423798        -1.233949
 H        -2.150127         3.740209         1.339667
 H        -0.665891         4.726914        -0.801734
 H        -0.521011         5.196132         0.871852
 H         1.899323         2.407569         1.238031
 H         1.232480         3.754641         2.286414
 H        -0.662798         1.885256         2.571963
