19
Iteration:  1485charge 0 multiplicity 1
 O         0.334439         0.289646         0.264599
 C        -0.663540         1.183564         0.658778
 C        -2.163572         0.985282         0.536744
 C        -1.460947         2.090308        -0.260687
 C        -1.363348         3.322391         0.764478
 C        -0.482964         4.434327         0.377384
 O         0.887815         3.821387         0.245846
 C         1.018904         2.895088         1.367838
 C        -0.373054         2.357725         1.592504
 H         0.470641        -0.453971         0.925124
 H        -2.569024         0.127983        -0.021656
 H        -2.746937         1.394066         1.483567
 H        -1.574716         2.101266        -1.352263
 H        -2.264837         3.461855         1.308675
 H        -0.557775         4.981599        -0.662721
 H        -0.366424         5.275114         1.112808
 H         1.777929         2.173706         1.007776
 H         1.261648         3.478071         2.368919
 H        -0.513388         2.231598         2.699366
