19
Iteration:  2298charge 0 multiplicity 1
 O         0.362201         0.272776         0.277213
 C        -0.598200         1.252102         0.557116
 C        -2.105480         1.007652         0.510260
 C        -1.596012         2.093562        -0.262901
 C        -1.407891         3.307570         0.796138
 C        -0.424107         4.408343         0.370493
 O         0.927509         3.808601         0.225865
 C         0.968801         2.940402         1.423854
 C        -0.381634         2.313814         1.643051
 H         0.280920        -0.323888         1.158195
 H        -2.401843         0.045674        -0.012369
 H        -2.791211         1.089612         1.427551
 H        -1.741154         2.079472        -1.319940
 H        -2.312077         3.530651         1.203391
 H        -0.486150         4.693512        -0.719461
 H        -0.411253         5.299562         0.932997
 H         1.722000         2.254233         1.230495
 H         1.229799         3.579570         2.335318
 H        -0.575333         2.341098         2.738769
