19
Iteration:  1822
 O         0.302283         0.205206         0.209409
 C        -0.709733         1.210775         0.550381
 C        -2.180495         0.883688         0.603401
 C        -1.676649         2.080374        -0.225705
 C        -1.278239         3.311044         0.729670
 C        -0.385548         4.429393         0.200469
 O         0.989744         3.951470         0.386381
 C         1.045776         3.043798         1.471451
 C        -0.349406         2.280005         1.574355
 H         0.481895        -0.374100         1.034741
 H        -2.604963         0.075153         0.051050
 H        -2.901972         1.033028         1.460622
 H        -1.922212         2.138311        -1.281703
 H        -2.196298         3.668987         1.336048
 H        -0.609501         4.687067        -0.885450
 H        -0.433098         5.321092         0.832965
 H         1.863259         2.190537         1.479558
 H         1.277837         3.571483         2.392403
 H        -0.599937         2.088028         2.679680
