19
Iteration:  1113charge 0 multiplicity 1
 O         0.336306         0.325821         0.151737
 C        -0.660488         1.153416         0.754384
 C        -2.097076         0.879453         0.446597
 C        -1.643428         2.192535        -0.121101
 C        -1.284703         3.325694         0.871778
 C        -0.349616         4.373021         0.233943
 O         0.868084         3.737362         0.179957
 C         0.982284         3.039802         1.470147
 C        -0.397274         2.372907         1.680262
 H         0.332856        -0.535250         0.598068
 H        -2.277431         0.195058        -0.328238
 H        -2.729928         0.864858         1.347420
 H        -1.608109         2.221467        -1.236302
 H        -2.242641         3.753835         1.281404
 H        -0.765072         4.564853        -0.796858
 H        -0.358833         5.252380         0.929521
 H         1.807304         2.392817         1.424525
 H         1.145160         3.847182         2.226682
 H        -0.558081         2.161642         2.698190
