19
Iteration:  4894
 O         0.277103         0.309717         0.288628
 C        -0.615060         1.182393         0.621142
 C        -2.108156         0.940674         0.525755
 C        -1.459977         2.027746        -0.313479
 C        -1.406405         3.271070         0.547987
 C        -0.416893         4.415744         0.328053
 O         1.007293         3.929098         0.428620
 C         0.912501         2.959083         1.534884
 C        -0.419977         2.336604         1.516131
 H         0.641802        -0.402276         0.896363
 H        -2.393729        -0.082274         0.039846
 H        -2.643993         1.136146         1.558835
 H        -1.741925         1.998047        -1.409030
 H        -2.402345         3.609348         1.035783
 H        -0.595040         4.925127        -0.604474
 H        -0.675284         5.351081         1.011633
 H         1.732838         2.207539         1.316683
 H         1.082484         3.444396         2.491635
 H        -0.770900         2.168934         2.545238
