19
Iteration:  1576charge 0 multiplicity 1
 O         0.321954         0.375741         0.142694
 C        -0.645043         1.249539         0.590907
 C        -2.113280         0.907439         0.680744
 C        -1.626357         2.079895        -0.211851
 C        -1.343765         3.295583         0.722423
 C        -0.298642         4.375617         0.235762
 O         0.931347         3.763016         0.333626
 C         0.907696         3.002831         1.479935
 C        -0.388803         2.353190         1.605106
 H         0.124262        -0.488265         0.347607
 H        -2.341960         0.060250         0.052191
 H        -2.531002         0.983681         1.626503
 H        -1.625868         1.864843        -1.276982
 H        -2.128737         3.804875         1.244776
 H        -0.534054         4.691799        -0.781707
 H        -0.382012         5.280617         0.941391
 H         1.756976         2.329973         1.449722
 H         1.085718         3.780643         2.392881
 H        -0.764576         2.077517         2.628589
