19
Iteration:  2914
 O         0.330930         0.251977         0.397986
 C        -0.704387         1.196282         0.582684
 C        -2.218108         0.832352         0.475992
 C        -1.626989         2.152192        -0.222057
 C        -1.390047         3.230677         0.784583
 C        -0.368800         4.369217         0.185609
 O         1.023380         3.942872         0.375772
 C         1.052798         3.013809         1.479435
 C        -0.422095         2.344086         1.602348
 H         0.733852         0.271965        -0.516596
 H        -2.248933         0.012179        -0.232046
 H        -3.016816         1.090178         1.208475
 H        -1.880438         2.208895        -1.259781
 H        -2.200457         3.653392         1.226275
 H        -0.467739         4.575409        -0.863371
 H        -0.710250         5.173164         0.840952
 H         2.028629         2.308582         1.167429
 H         1.521687         3.655410         2.248426
 H        -0.685163         2.041598         2.639052
