19
Iteration:  3688
 O         0.201810         0.062129         0.275790
 C        -0.662630         1.134779         0.629583
 C        -2.164030         0.891927         0.523418
 C        -1.548766         2.078978        -0.261565
 C        -1.263727         3.285993         0.663567
 C        -0.272708         4.246072         0.000281
 O         0.857857         4.358386         0.880748
 C         1.040333         3.035361         1.411852
 C        -0.360935         2.345651         1.522287
 H        -0.338826        -0.575858        -0.247160
 H        -2.377819         0.011727        -0.066425
 H        -2.864557         1.044005         1.325208
 H        -1.915893         2.157370        -1.294456
 H        -2.074252         3.593695         1.242922
 H        -0.014613         3.754381        -0.974342
 H        -0.722600         5.216400        -0.348270
 H         1.589691         2.389795         0.625695
 H         1.761027         3.013412         2.309165
 H        -0.595433         2.231953         2.567026
