19
Iteration:  3157
 O         0.351907         0.334962         0.214348
 C        -0.662195         1.176486         0.688778
 C        -2.187283         0.989337         0.389084
 C        -1.467938         2.091575        -0.253225
 C        -1.334663         3.269399         0.678505
 C        -0.411107         4.332465         0.305516
 O         0.933735         3.863733         0.287345
 C         0.931947         2.981356         1.532761
 C        -0.396741         2.297546         1.712072
 H         0.577436        -0.226128         1.079600
 H        -2.415117         0.185276        -0.297204
 H        -2.928529         1.231082         1.151762
 H        -1.425539         2.071205        -1.331571
 H        -2.376556         3.630858         1.068150
 H        -0.553961         4.830645        -0.598784
 H        -0.506509         5.171254         1.067462
 H         1.838235         2.264656         1.553032
 H         1.046367         3.570832         2.428654
 H        -0.874702         2.205408         2.691358
