19
Iteration:  4769
 O         0.365193         0.310163         0.278413
 C        -0.734387         1.134459         0.624378
 C        -2.189269         0.883769         0.693174
 C        -1.648693         1.986664        -0.304606
 C        -1.321101         3.293377         0.473241
 C        -0.330605         4.329264         0.124484
 O         0.923105         4.178788         0.769662
 C         1.052370         2.904560         1.491212
 C        -0.391466         2.346119         1.470069
 H        -0.043281        -0.240516        -0.431494
 H        -2.377061        -0.007834         0.012281
 H        -2.819265         1.139185         1.614982
 H        -1.773584         1.849430        -1.416607
 H        -2.194714         3.745938         0.835443
 H        -0.070893         4.052884        -0.869592
 H        -0.649757         5.382813         0.273635
 H         1.746919         2.279562         0.893949
 H         1.621659         3.062447         2.377875
 H        -0.681971         2.161456         2.587129
