19
Iteration:  4158
 O         0.194082         0.238680         0.260612
 C        -0.780945         1.139297         0.645019
 C        -2.229676         0.861887         0.411477
 C        -1.585644         2.089022        -0.267227
 C        -1.287934         3.179652         0.702012
 C        -0.226858         4.210071        -0.024157
 O         0.827584         4.320083         0.949548
 C         1.114386         2.980878         1.347473
 C        -0.361883         2.340689         1.533068
 H         0.691268        -0.246056         1.044486
 H        -2.292775        -0.017571        -0.217192
 H        -2.843909         1.091332         1.199518
 H        -1.538299         2.255146        -1.338748
 H        -2.098872         3.706325         1.213408
 H         0.229920         3.571429        -0.929224
 H        -0.437359         5.313816        -0.450914
 H         1.754988         2.271104         0.569958
 H         1.753896         3.036072         2.251972
 H        -0.666422         2.249785         2.634129
