19
Iteration:   535
 O         0.386341         0.311039         0.162797
 C        -0.679570         1.231038         0.645865
 C        -2.126513         0.784297         0.542269
 C        -1.654043         2.100297        -0.119552
 C        -1.365937         3.428104         0.841443
 C        -0.315745         4.431118         0.271777
 O         0.901807         3.732098         0.192346
 C         0.945633         2.947126         1.434054
 C        -0.399368         2.414908         1.604268
 H         0.559316        -0.283127         1.034332
 H        -2.318407        -0.130808        -0.076163
 H        -2.587757         0.789317         1.498257
 H        -1.883836         2.305081        -1.177774
 H        -2.069796         3.894592         1.445049
 H        -0.491638         4.792520        -0.733725
 H        -0.358419         5.421803         0.879772
 H         1.819897         2.242030         1.359159
 H         1.162543         3.669964         2.312091
 H        -0.685467         2.334941         2.612097
