19
Iteration:  4372
 O         0.127836         0.050176         0.278201
 C        -0.687606         1.104997         0.609636
 C        -2.187261         0.966314         0.367574
 C        -1.543080         2.075532        -0.319070
 C        -1.216319         3.209631         0.709924
 C        -0.339603         4.259407        -0.001656
 O         0.823598         4.374219         0.926780
 C         1.082713         3.023132         1.388590
 C        -0.268988         2.277897         1.556313
 H         0.639685        -0.307673         1.109327
 H        -2.472342         0.106732        -0.303575
 H        -2.988018         1.321343         1.023610
 H        -1.798248         2.268973        -1.376894
 H        -2.018025         3.773921         1.260902
 H        -0.096586         3.872890        -0.974621
 H        -0.766676         5.196262         0.065563
 H         1.731860         2.490138         0.658241
 H         1.549030         3.199773         2.434064
 H        -0.477712         2.066619         2.596194
