19
Iteration:  2943charge 0 multiplicity 1
 O         0.409345         0.408526         0.297476
 C        -0.675969         1.164775         0.652353
 C        -2.148122         0.950431         0.577939
 C        -1.542160         2.127521        -0.241874
 C        -1.284100         3.242121         0.690661
 C        -0.408813         4.390980         0.189767
 O         0.929560         3.897461         0.404908
 C         0.947467         2.870174         1.458977
 C        -0.450744         2.323020         1.588651
 H        -0.008764        -0.464679        -0.120680
 H        -2.289632         0.070780        -0.095386
 H        -2.888447         1.212287         1.392024
 H        -1.734129         2.065449        -1.296943
 H        -2.282385         3.635978         1.243649
 H        -0.417024         4.618963        -0.963142
 H        -0.641481         5.260315         0.863540
 H         1.648142         2.151987         1.226220
 H         1.394118         3.324996         2.395165
 H        -0.834087         2.179845         2.615069
