19
Iteration:  3101
 O         0.372391         0.296110         0.329125
 C        -0.612188         1.196202         0.631990
 C        -2.080535         1.002734         0.448665
 C        -1.565078         2.188945        -0.321435
 C        -1.349014         3.261393         0.755285
 C        -0.391606         4.323063         0.270341
 O         0.908031         3.783721         0.358194
 C         0.926009         3.041802         1.527540
 C        -0.426290         2.322938         1.615474
 H         0.063415        -0.208506        -0.429258
 H        -2.333873         0.067933        -0.076850
 H        -2.659850         1.032410         1.375113
 H        -1.763504         2.179371        -1.422624
 H        -2.269133         3.604219         1.370374
 H        -0.504520         4.507006        -0.755188
 H        -0.378478         5.238630         0.895203
 H         1.671380         2.274626         1.368493
 H         1.140914         3.642315         2.434403
 H        -0.851238         2.113577         2.603319
