19
Iteration:  2673
 O         0.281800         0.357089         0.328771
 C        -0.682402         1.192944         0.666140
 C        -2.040202         0.883897         0.554148
 C        -1.649054         2.090817        -0.199224
 C        -1.390622         3.306935         0.794323
 C        -0.343172         4.365749         0.189975
 O         0.967200         3.829764         0.278704
 C         0.995021         2.959424         1.420125
 C        -0.432903         2.316759         1.600233
 H         1.128335         0.742431        -0.084589
 H        -2.199835        -0.096537         0.110003
 H        -2.681954         0.949427         1.497711
 H        -1.764511         2.176640        -1.289557
 H        -2.357149         3.858544         1.164477
 H        -0.620028         4.617491        -0.818565
 H        -0.565750         5.306438         0.776729
 H         1.643260         2.249051         1.136826
 H         1.150344         3.567079         2.336275
 H        -0.587009         2.010336         2.634958
