19
Iteration:  4399
 O         0.128433         0.114241         0.153665
 C        -0.674990         1.133822         0.618198
 C        -2.130288         0.895687         0.449210
 C        -1.495262         2.001643        -0.252803
 C        -1.294329         3.280021         0.666312
 C        -0.283489         4.218226         0.025385
 O         0.871745         4.359931         0.929071
 C         1.057997         3.001876         1.406308
 C        -0.390299         2.372300         1.549848
 H         0.245820        -0.533866         0.970293
 H        -2.375019         0.049327        -0.161426
 H        -2.887051         1.187311         1.322195
 H        -1.472363         1.952861        -1.340622
 H        -2.120785         3.873550         1.198451
 H        -0.056642         3.812825        -1.013832
 H        -0.699546         5.311528         0.001734
 H         1.656570         2.379688         0.714269
 H         1.575777         3.070640         2.332105
 H        -0.735564         2.253885         2.608983
