19
Iteration:  4439
 O         0.395838         0.298241         0.277870
 C        -0.714187         1.152494         0.541379
 C        -2.198006         0.893846         0.675833
 C        -1.683499         1.963069        -0.330950
 C        -1.286322         3.273973         0.525585
 C        -0.210974         4.250707         0.004419
 O         0.895038         4.275681         1.038310
 C         1.011787         2.897291         1.388247
 C        -0.440147         2.345498         1.427445
 H         0.106895        -0.485550        -0.098303
 H        -2.894231         0.158428         0.276285
 H        -2.683346         1.451455         1.544900
 H        -2.046099         1.899087        -1.385613
 H        -2.245325         3.706454         0.936926
 H         0.332450         3.918920        -0.888331
 H        -0.664664         5.189846        -0.015414
 H         1.523008         2.514424         0.483957
 H         1.500549         2.806073         2.385223
 H        -0.710220         2.124967         2.433647
