19
Iteration:  2422charge 0 multiplicity 1
 O         0.258884         0.275012         0.194733
 C        -0.697384         1.217706         0.697007
 C        -2.170769         0.867665         0.641137
 C        -1.533606         1.993502        -0.231776
 C        -1.328048         3.283067         0.664813
 C        -0.358527         4.433111         0.269000
 O         0.942249         3.835332         0.288197
 C         0.993561         3.053171         1.468348
 C        -0.390265         2.351161         1.692760
 H         0.854630         0.487582        -0.646978
 H        -2.305261        -0.138240         0.107040
 H        -2.982758         1.260289         1.346959
 H        -1.519431         2.096390        -1.343630
 H        -2.265548         3.566351         1.081911
 H        -0.481497         4.929882        -0.694370
 H        -0.505482         5.260985         0.995964
 H         1.739314         2.123631         1.357615
 H         1.183535         3.751267         2.297415
 H        -0.506634         2.269880         2.847199
