19
Iteration:  2511
 O         0.227479         0.228098         0.217293
 C        -0.636629         1.180187         0.649644
 C        -2.075200         0.895220         0.568510
 C        -1.499716         2.127982        -0.172041
 C        -1.363155         3.308776         0.745889
 C        -0.390781         4.392869         0.231596
 O         0.881305         3.762145         0.191664
 C         0.995407         3.089811         1.560095
 C        -0.433477         2.333622         1.700949
 H         0.905574         0.681857        -0.398868
 H        -2.394764         0.000619         0.039082
 H        -2.808244         1.089464         1.348279
 H        -1.284627         2.059037        -1.215487
 H        -2.129915         3.763250         1.183781
 H        -0.608973         4.773074        -0.733195
 H        -0.427381         5.305616         0.912836
 H         1.907881         2.419318         1.299492
 H         1.162034         3.822601         2.331208
 H        -0.615824         2.061422         2.762969
