19
Iteration:   658charge 0 multiplicity 1
 O         0.253494         0.223023         0.239554
 C        -0.716616         1.119572         0.730056
 C        -2.142397         0.989341         0.572511
 C        -1.471946         2.089635        -0.239399
 C        -1.305763         3.219363         0.785774
 C        -0.455996         4.463864         0.298897
 O         0.927405         4.011037         0.303837
 C         1.010715         2.960123         1.320315
 C        -0.336416         2.324053         1.597830
 H         0.303691        -0.690967         0.734802
 H        -2.416517         0.081175         0.035120
 H        -2.890358         1.194503         1.441788
 H        -1.267845         2.050308        -1.297653
 H        -2.230578         3.422094         1.357885
 H        -0.774812         4.584057        -0.713558
 H        -0.487914         5.432049         0.821685
 H         1.649862         2.186070         0.767742
 H         1.414073         3.411638         2.187767
 H        -0.561392         2.371693         2.666146
