19
Iteration:  1800
 O         0.291988         0.260182         0.153742
 C        -0.678644         1.173850         0.669551
 C        -2.113100         1.063828         0.638239
 C        -1.445775         2.038868        -0.233450
 C        -1.330999         3.274845         0.716816
 C        -0.436774         4.352919         0.268544
 O         0.931484         3.891738         0.346637
 C         0.954349         2.966201         1.421630
 C        -0.396182         2.343313         1.565970
 H         0.374089        -0.453458         0.739324
 H        -2.592954         0.213067         0.208461
 H        -2.710594         1.364413         1.548414
 H        -1.536250         2.230422        -1.271528
 H        -2.356955         3.581898         1.158409
 H        -0.634293         4.776439        -0.773700
 H        -0.513930         5.154653         1.042149
 H         1.823545         2.161266         1.269690
 H         1.288759         3.437907         2.331445
 H        -0.736902         2.309402         2.654450
