19
Iteration:  2411
 O         0.276187         0.243437         0.250446
 C        -0.666583         1.188688         0.680394
 C        -2.160632         0.886496         0.599185
 C        -1.547916         2.025351        -0.224244
 C        -1.378989         3.240215         0.742919
 C        -0.333166         4.404154         0.286956
 O         0.962552         3.827213         0.281042
 C         0.963556         3.114178         1.494183
 C        -0.346814         2.395702         1.558521
 H         0.282493         0.530374        -0.666379
 H        -2.370154        -0.076381         0.036405
 H        -3.008353         1.139444         1.340773
 H        -1.715388         2.037686        -1.333079
 H        -2.185731         3.702454         1.264496
 H        -0.524469         4.778273        -0.717514
 H        -0.332015         5.180961         1.069930
 H         1.939388         2.434483         1.412456
 H         1.164352         3.745675         2.382216
 H        -0.808903         2.104968         2.544241
