19
Iteration:  4965
 O         0.429875         0.360705         0.430351
 C        -0.701841         1.253474         0.707756
 C        -2.136387         0.883108         0.293257
 C        -1.382221         2.187269        -0.286393
 C        -1.378748         3.264025         0.795887
 C        -0.441865         4.369551         0.308447
 O         0.862890         3.734142         0.208204
 C         0.953568         2.952827         1.529652
 C        -0.452943         2.369750         1.717030
 H         0.117843        -0.221297        -0.329803
 H        -2.255004         0.124206        -0.399595
 H        -2.878179         0.814303         1.030508
 H        -1.470273         2.301728        -1.345683
 H        -2.392249         3.566351         1.175844
 H        -0.524724         4.865843        -0.733920
 H        -0.430213         5.343672         0.864586
 H         1.632158         2.132282         1.285521
 H         1.344911         3.776608         2.196870
 H        -0.727754         2.189642         2.750963
