19
Iteration:  4869charge 0 multiplicity 1
 O         0.347726         0.242768         0.182771
 C        -0.686855         1.139711         0.607178
 C        -2.264500         0.873832         0.574836
 C        -1.561518         1.976255        -0.297071
 C        -1.286126         3.255666         0.523799
 C        -0.336428         4.390495         0.268909
 O         0.945617         4.051354         0.568765
 C         0.943903         2.992658         1.498170
 C        -0.421140         2.416019         1.566468
 H         0.863202        -0.165089         1.009930
 H        -2.534584        -0.025926         0.062981
 H        -2.962388         1.184588         1.537318
 H        -1.234325         1.874513        -1.303866
 H        -2.107500         3.635848         1.048565
 H        -0.350018         4.743852        -0.763644
 H        -0.776606         5.333172         0.765504
 H         1.706182         2.237308         1.096443
 H         1.485801         3.318157         2.449539
 H        -0.821768         2.398395         2.652156
