19
Iteration:  1433charge 0 multiplicity 1
 O         0.149465         0.069814         0.172697
 C        -0.686225         1.117074         0.648305
 C        -2.186959         0.831411         0.572596
 C        -1.508846         2.056574        -0.161788
 C        -1.220034         3.304272         0.750267
 C        -0.413800         4.514330         0.241811
 O         0.963917         4.079561         0.302835
 C         1.024042         3.095257         1.439786
 C        -0.361344         2.328397         1.643393
 H         0.336466        -0.534082         0.828960
 H        -2.362926         0.106315        -0.202137
 H        -2.954149         0.881755         1.334506
 H        -1.492183         2.128989        -1.249096
 H        -2.159045         3.626180         1.247712
 H        -0.489112         4.795399        -0.859459
 H        -0.549242         5.398028         0.836087
 H         1.839408         2.425492         1.195862
 H         1.411586         3.521583         2.354034
 H        -0.548425         2.067670         2.777520
