19
Iteration:  2455charge 0 multiplicity 1
 O         0.325032         0.258130         0.275026
 C        -0.608406         1.227858         0.600071
 C        -2.146580         0.923711         0.581052
 C        -1.609181         2.152422        -0.196656
 C        -1.350753         3.283978         0.803190
 C        -0.420716         4.361167         0.200116
 O         0.934213         3.813544         0.309144
 C         0.965211         2.971693         1.408164
 C        -0.426383         2.352750         1.621524
 H         1.182313         0.611378         0.307804
 H        -2.318572        -0.015036        -0.060401
 H        -2.968314         1.121625         1.324467
 H        -1.890357         2.326010        -1.237980
 H        -2.195057         3.597303         1.307863
 H        -0.469693         4.473050        -0.868015
 H        -0.473506         5.335218         0.741319
 H         1.826382         2.170214         1.345515
 H         1.291149         3.475856         2.343926
 H        -0.364055         2.242101         2.728113
