19
Iteration:  2223
 O         0.305288         0.285830         0.197854
 C        -0.638158         1.189512         0.590412
 C        -2.089172         0.929861         0.665002
 C        -1.596132         2.076258        -0.281043
 C        -1.307428         3.251635         0.667967
 C        -0.468712         4.435812         0.278415
 O         0.988706         3.862436         0.322626
 C         0.979702         2.997016         1.464786
 C        -0.392142         2.387419         1.685368
 H        -0.013470        -0.501650         0.537156
 H        -2.492495         0.169631        -0.130329
 H        -2.848879         1.006138         1.518080
 H        -1.896129         2.043566        -1.296718
 H        -2.347592         3.563750         1.074942
 H        -0.427445         4.737491        -0.800954
 H        -0.485285         5.268206         1.021114
 H         1.823664         2.336185         1.394918
 H         1.266715         3.609107         2.323360
 H        -0.520445         1.961823         2.665157
