19
Iteration:  2985
 O         0.221669         0.278395         0.194343
 C        -0.640929         1.247672         0.660060
 C        -2.140245         0.861127         0.495326
 C        -1.535127         2.084866        -0.266601
 C        -1.286207         3.228213         0.712881
 C        -0.361068         4.408709         0.277497
 O         0.946634         3.771176         0.325971
 C         0.953420         3.140538         1.544751
 C        -0.392709         2.298304         1.622914
 H         0.825270        -0.096671         0.818654
 H        -2.232130         0.112147        -0.300767
 H        -2.921777         1.124956         1.191626
 H        -1.642015         2.400536        -1.303864
 H        -2.174915         3.706997         1.300282
 H        -0.737113         4.711069        -0.731159
 H        -0.438431         5.100901         1.108172
 H         1.997779         2.714372         1.561245
 H         0.917254         3.883702         2.350633
 H        -0.841116         2.080009         2.601481
