19
Iteration:  2504charge 0 multiplicity 1
 O         0.253159         0.192436         0.231596
 C        -0.608732         1.226017         0.685649
 C        -2.132474         0.885553         0.496262
 C        -1.595785         2.115261        -0.188156
 C        -1.353310         3.355583         0.786375
 C        -0.374283         4.366918         0.225100
 O         0.906961         3.794466         0.170728
 C         0.961813         3.113129         1.545219
 C        -0.367973         2.296007         1.717783
 H         1.050707         0.534519        -0.353703
 H        -2.331841        -0.028571        -0.015441
 H        -2.770877         0.918693         1.365823
 H        -1.395185         2.133259        -1.288742
 H        -2.319167         3.787439         1.364456
 H        -0.592785         4.780111        -0.799092
 H        -0.309459         5.209946         0.909196
 H         1.781824         2.332371         1.543312
 H         1.190257         3.871828         2.319115
 H        -0.611925         2.132208         2.785994
