19
Iteration:  4705charge 0 multiplicity 1
 O         0.187704         0.141494         0.379442
 C        -0.712709         1.178123         0.636091
 C        -2.218550         0.874439         0.510830
 C        -1.616496         2.064124        -0.289096
 C        -1.174961         3.222036         0.657306
 C        -0.276246         4.218161         0.003075
 O         0.751739         4.375812         0.941253
 C         1.123720         3.005448         1.301087
 C        -0.231749         2.322197         1.523895
 H         0.148028        -0.230120        -0.453376
 H        -2.357632        -0.116427        -0.100377
 H        -3.158272         1.068363         1.169032
 H        -1.777194         2.191650        -1.390721
 H        -1.985243         3.628501         1.337820
 H         0.020468         3.752827        -0.970207
 H        -0.786543         5.136793        -0.387196
 H         1.586745         2.444350         0.474513
 H         1.783808         2.939386         2.070868
 H        -0.614237         2.084695         2.525847
