19
Iteration:   879charge 0 multiplicity 1
 O         0.246512         0.204011         0.212391
 C        -0.642606         1.181423         0.703649
 C        -2.149591         0.956845         0.559282
 C        -1.500006         2.049392        -0.254862
 C        -1.348028         3.242974         0.829897
 C        -0.490623         4.390975         0.232016
 O         0.912449         3.948871         0.250826
 C         1.065116         3.058554         1.446954
 C        -0.294340         2.321796         1.693440
 H        -0.161937        -0.601975         0.141359
 H        -2.538715         0.186850        -0.077178
 H        -2.932183         1.386971         1.259603
 H        -1.393648         2.275806        -1.346679
 H        -2.331500         3.422815         1.308940
 H        -0.714990         4.639983        -0.813926
 H        -0.505326         5.392253         0.759069
 H         2.023551         2.466512         1.329679
 H         1.338774         3.678155         2.296695
 H        -0.392765         2.054749         2.696204
