19
Iteration:  3548
 O         0.125451         0.039403         0.387102
 C        -0.663239         1.190733         0.629238
 C        -2.093515         0.892376         0.610666
 C        -1.524631         2.069328        -0.336772
 C        -1.279521         3.262571         0.564851
 C        -0.368856         4.393731         0.082451
 O         0.835011         4.223464         0.812068
 C         1.052623         2.941363         1.351095
 C        -0.334350         2.376990         1.504901
 H         0.817870         0.178163        -0.204623
 H        -2.288423        -0.012836         0.047824
 H        -2.901892         1.217192         1.319781
 H        -1.520807         1.939571        -1.426800
 H        -2.182466         3.546458         1.212729
 H        -0.104090         4.317268        -1.023645
 H        -0.797287         5.318197         0.215783
 H         1.628393         2.398582         0.607277
 H         1.739713         2.997356         2.170417
 H        -0.619513         2.148438         2.532857
