19
Iteration:  2162charge 0 multiplicity 1
 O         0.278318         0.355294         0.119493
 C        -0.702534         1.259669         0.746851
 C        -2.098601         0.824319         0.477154
 C        -1.572126         2.051091        -0.179432
 C        -1.340797         3.298901         0.849229
 C        -0.347572         4.306620         0.252023
 O         0.956573         3.820632         0.256852
 C         1.010332         3.030686         1.436937
 C        -0.454783         2.441916         1.709526
 H         0.051522        -0.541397         0.440516
 H        -2.207198         0.049702        -0.213734
 H        -2.896803         0.883561         1.189125
 H        -1.195966         2.130134        -1.191484
 H        -2.218430         3.786504         1.316983
 H        -0.540165         4.486755        -0.807188
 H        -0.563471         5.241601         0.755222
 H         1.835706         2.194258         1.352533
 H         1.154142         3.739520         2.266883
 H        -0.493572         2.431705         2.847781
