19
Iteration:  2503charge 0 multiplicity 1
 O         0.257393         0.187677         0.234194
 C        -0.611115         1.231759         0.689071
 C        -2.140048         0.884122         0.490007
 C        -1.605867         2.111689        -0.190693
 C        -1.355555         3.355993         0.795560
 C        -0.373276         4.366337         0.222568
 O         0.912081         3.795543         0.173076
 C         0.953712         3.115698         1.538150
 C        -0.355918         2.300410         1.717124
 H         1.060221         0.528908        -0.340232
 H        -2.299818        -0.009481        -0.042864
 H        -2.746616         0.915244         1.356521
 H        -1.436854         2.160886        -1.287633
 H        -2.293815         3.764189         1.345893
 H        -0.596201         4.759125        -0.784804
 H        -0.300953         5.207845         0.917806
 H         1.802154         2.312834         1.575363
 H         1.179463         3.859966         2.303324
 H        -0.618062         2.140877         2.785840
