19
Iteration:   172
 O         0.364389         0.462545         0.217023
 C        -0.624179         1.277627         0.643117
 C        -2.043715         0.865874         0.556923
 C        -1.735656         2.135213        -0.109784
 C        -1.442138         3.318712         0.788533
 C        -0.367804         4.333567         0.232039
 O         0.925104         3.689535         0.173535
 C         1.024959         2.919443         1.491108
 C        -0.387792         2.374774         1.584280
 H         0.579853        -0.109594         0.957015
 H        -2.281895         0.046052        -0.047633
 H        -2.615182         0.938375         1.485471
 H        -1.887831         2.125985        -1.149072
 H        -2.273891         3.719237         1.425068
 H        -0.624216         4.741435        -0.776416
 H        -0.350895         5.207632         0.984598
 H         1.717730         2.137970         1.243377
 H         1.406713         3.679327         2.244096
 H        -0.774302         2.151358         2.628476
