19
Iteration:  4944
 O         0.334313         0.314635         0.373020
 C        -0.667178         1.239535         0.743771
 C        -2.035275         0.922886         0.274767
 C        -1.453114         2.222018        -0.234485
 C        -1.359920         3.270881         0.898387
 C        -0.444832         4.317091         0.230362
 O         0.865055         3.701835         0.274815
 C         0.936061         3.071429         1.480382
 C        -0.392309         2.324503         1.640162
 H        -0.027463        -0.461566         0.031306
 H        -2.074276         0.256110        -0.541614
 H        -3.008965         0.867545         0.732326
 H        -0.909184         2.276519        -1.152325
 H        -2.299943         3.700383         1.182945
 H        -0.784717         4.708389        -0.779824
 H        -0.447967         5.219288         0.816528
 H         1.885128         2.507964         1.417745
 H         0.665964         3.850277         2.297413
 H        -0.575585         2.159896         2.728265
