19
Iteration:  4823charge 0 multiplicity 1
 O         0.282034         0.170670         0.242831
 C        -0.618134         1.204226         0.588675
 C        -2.126632         0.938060         0.388831
 C        -1.551121         2.065462        -0.199046
 C        -1.341410         3.272735         0.776645
 C        -0.414889         4.252284         0.010868
 O         0.883020         4.113251         0.656878
 C         1.049481         3.024950         1.512299
 C        -0.359171         2.404984         1.577389
 H        -0.345292        -0.602435         0.504711
 H        -2.309446        -0.019769        -0.115027
 H        -2.636115         1.064360         1.326363
 H        -1.681753         2.315754        -1.269336
 H        -2.141704         3.688299         1.321823
 H        -0.374764         4.047743        -1.092053
 H        -0.758189         5.283980         0.042283
 H         1.758729         2.160546         1.252513
 H         1.368595         3.286034         2.611455
 H        -0.564109         2.065365         2.652472
