19
Iteration:   914
 O         0.378697         0.229475         0.437776
 C        -0.683536         1.191062         0.583340
 C        -2.080734         0.889227         0.481001
 C        -1.626363         2.176263        -0.229545
 C        -1.361519         3.283716         0.812054
 C        -0.416797         4.547555         0.335740
 O         0.874282         3.899653         0.198920
 C         1.035508         2.902309         1.359073
 C        -0.344501         2.282749         1.577517
 H        -0.028787        -0.555618         0.597242
 H        -2.345967         0.098343        -0.169141
 H        -2.773609         0.973981         1.301495
 H        -1.877863         2.325233        -1.260272
 H        -2.214264         3.595686         1.539555
 H        -0.590370         4.928603        -0.706820
 H        -0.394819         5.387660         1.075022
 H         1.663854         2.190024         0.979732
 H         1.310794         3.434613         2.286506
 H        -0.445617         2.055527         2.626670
