19
Iteration:  2882
 O         0.179767         0.165250         0.201714
 C        -0.663420         1.199663         0.653891
 C        -2.045147         0.913426         0.559779
 C        -1.455797         2.150508        -0.241320
 C        -1.358905         3.286343         0.756471
 C        -0.380320         4.432835         0.239309
 O         0.890306         3.792655         0.296383
 C         0.959322         3.100022         1.526995
 C        -0.407308         2.321450         1.609481
 H         1.172570         0.268099         0.389340
 H        -2.363561         0.007549         0.083142
 H        -2.773568         1.115840         1.327243
 H        -1.276741         2.117483        -1.306035
 H        -2.209127         3.628083         1.216811
 H        -0.619242         4.772380        -0.713086
 H        -0.561933         5.304618         0.863447
 H         1.986395         2.486390         1.444821
 H         0.931923         3.825486         2.280715
 H        -0.585862         2.060630         2.674072
