19
Iteration:  3800
 O         0.094968         0.031498         0.365872
 C        -0.709045         1.205989         0.523419
 C        -2.150263         0.966616         0.445824
 C        -1.595632         2.058620        -0.307501
 C        -1.214319         3.197745         0.698232
 C        -0.305100         4.239254         0.017031
 O         0.840484         4.350456         0.875673
 C         1.106584         3.063005         1.489464
 C        -0.291619         2.250884         1.516525
 H         0.461968         0.011564        -0.556279
 H        -2.465556         0.111171        -0.194757
 H        -2.906333         1.250906         1.268791
 H        -1.605848         2.040456        -1.423625
 H        -2.047291         3.451510         1.328150
 H        -0.065832         3.881064        -1.087447
 H        -0.656405         5.215017        -0.131712
 H         1.910957         2.539213         0.840170
 H         1.463698         3.416837         2.475591
 H        -0.541645         1.967934         2.539360
