19
Iteration:  1935
 O         0.340985         0.377282         0.275046
 C        -0.678161         1.199797         0.696884
 C        -2.107496         0.866536         0.436119
 C        -1.600641         2.193157        -0.107270
 C        -1.363179         3.354703         0.802410
 C        -0.359721         4.338403         0.207096
 O         0.936702         3.790689         0.221618
 C         0.969453         2.898595         1.393015
 C        -0.415582         2.350361         1.686902
 H         0.437860        -0.234882         0.970834
 H        -2.246234         0.047040        -0.352883
 H        -2.795309         0.811469         1.283305
 H        -1.730366         2.451116        -1.160964
 H        -2.262639         3.790635         1.259642
 H        -0.567656         4.702943        -0.806482
 H        -0.374764         5.234825         0.803719
 H         1.723641         2.203391         1.260710
 H         1.244727         3.590445         2.225712
 H        -0.595975         2.070484         2.673905
