19
Iteration:  3444
 O         0.303397         0.279460         0.326916
 C        -0.780404         1.091558         0.702881
 C        -2.139852         0.910064         0.499157
 C        -1.624616         2.120540        -0.234580
 C        -1.306245         3.254740         0.691039
 C        -0.366773         4.250071         0.097005
 O         1.004765         4.107488         0.606409
 C         1.015639         2.923939         1.375773
 C        -0.447844         2.340826         1.577396
 H         1.146362         0.815103         0.032370
 H        -2.221847         0.201800        -0.311449
 H        -3.039204         0.760253         1.078049
 H        -1.432357         2.026793        -1.278692
 H        -2.229993         3.737308         1.176785
 H        -0.384577         4.199985        -0.971261
 H        -0.697091         5.363003         0.340148
 H         1.687435         2.245471         0.872911
 H         1.307970         3.323533         2.471897
 H        -0.657913         2.210080         2.659159
