19
Iteration:  1744charge 0 multiplicity 1
 O         0.396906         0.233089         0.367523
 C        -0.644762         1.203810         0.610067
 C        -2.183503         0.947936         0.382092
 C        -1.659667         2.193348        -0.208663
 C        -1.324321         3.347701         0.891248
 C        -0.386490         4.444750         0.303874
 O         0.901603         3.790167         0.174016
 C         1.009562         3.000868         1.402877
 C        -0.355334         2.251801         1.653145
 H         0.145265        -0.509850         1.016720
 H        -2.281241         0.192821        -0.426977
 H        -2.868581         0.857115         1.172449
 H        -1.667685         2.492660        -1.249591
 H        -2.288155         3.630830         1.413304
 H        -0.822308         4.708377        -0.662596
 H        -0.185429         5.417515         0.829096
 H         1.729348         2.118282         1.356070
 H         1.138075         3.679425         2.190335
 H        -0.525353         2.129266         2.765808
