19
Iteration:  4360
 O         0.163296         0.062548         0.302425
 C        -0.718212         1.131463         0.557433
 C        -2.235486         0.983383         0.460745
 C        -1.488317         2.081435        -0.287528
 C        -1.245562         3.238687         0.631419
 C        -0.307618         4.271030         0.096690
 O         0.777921         4.339698         0.929881
 C         1.103057         2.974665         1.359924
 C        -0.310449         2.266454         1.426520
 H         0.510917        -0.056175         1.198668
 H        -2.445702         0.122229        -0.192959
 H        -2.830022         1.026716         1.334569
 H        -1.335183         2.133404        -1.374181
 H        -2.069793         3.527545         1.276863
 H         0.026125         4.201479        -0.918845
 H        -0.791359         5.169093        -0.019030
 H         1.886582         2.515089         0.711494
 H         1.704427         3.075874         2.371319
 H        -0.685082         2.265318         2.458937
