19
Iteration:  1555
 O         0.478122         0.350462         0.226141
 C        -0.615993         1.192776         0.581926
 C        -2.147408         0.978611         0.560463
 C        -1.606072         2.243491        -0.192373
 C        -1.373983         3.276856         0.827993
 C        -0.426830         4.350253         0.193696
 O         0.909343         3.710546         0.218948
 C         0.966407         2.954339         1.528630
 C        -0.406173         2.296422         1.641139
 H         0.099452        -0.590999         0.566344
 H        -2.665300         0.313732        -0.096484
 H        -2.640726         1.181166         1.400884
 H        -2.039991         2.499058        -1.176672
 H        -2.167709         3.806813         1.367452
 H        -0.662828         4.650849        -0.777983
 H        -0.374654         5.302759         0.807668
 H         1.699380         2.154582         1.606960
 H         1.145611         3.833484         2.230865
 H        -0.650412         2.127164         2.733524
