19
Iteration:  4441charge 0 multiplicity 1
 O         0.401609         0.304162         0.287897
 C        -0.724228         1.146739         0.546052
 C        -2.187581         0.883887         0.679720
 C        -1.682877         1.971838        -0.338838
 C        -1.294358         3.267682         0.520636
 C        -0.204861         4.251677        -0.000804
 O         0.899437         4.275527         1.043831
 C         0.994674         2.891461         1.384520
 C        -0.424449         2.347838         1.422123
 H         0.066815        -0.513631        -0.169506
 H        -2.872361         0.161627         0.263393
 H        -2.736451         1.476965         1.573594
 H        -2.073946         2.021034        -1.350113
 H        -2.292782         3.668254         0.970886
 H         0.301755         3.881703        -0.824705
 H        -0.671952         5.237627        -0.073224
 H         1.560178         2.490950         0.516932
 H         1.467908         2.796176         2.317619
 H        -0.663798         2.159588         2.422640
