19
Iteration:   350
 O         0.327395         0.219020         0.383552
 C        -0.737724         1.088709         0.690206
 C        -2.188741         0.862005         0.355218
 C        -1.604853         2.183279        -0.138148
 C        -1.265247         3.263588         0.830489
 C        -0.406213         4.498564         0.373827
 O         0.869675         3.861232         0.133975
 C         1.041341         3.071387         1.279043
 C        -0.321077         2.290286         1.648469
 H         0.421652        -0.358009         1.055379
 H        -2.398642         0.394653        -0.564390
 H        -2.930841         0.638160         1.120610
 H        -1.326142         2.370929        -1.165769
 H        -2.158324         3.643187         1.494987
 H        -0.627089         5.114632        -0.438070
 H        -0.486635         5.146101         1.273427
 H         1.860644         2.381768         1.019046
 H         1.285237         3.731891         2.106163
 H        -0.394562         2.326052         2.831166
