19
Iteration:   819
 O         0.310373         0.334192         0.168663
 C        -0.620308         1.243113         0.519980
 C        -2.086716         0.963014         0.745071
 C        -1.663942         2.146261        -0.246414
 C        -1.336522         3.238934         0.745610
 C        -0.372372         4.319396         0.155629
 O         0.877203         3.800785         0.375189
 C         0.994125         2.964659         1.513429
 C        -0.343625         2.366405         1.526191
 H         0.796445        -0.043802         0.979329
 H        -2.425444         0.050635         0.273955
 H        -2.557370         1.152156         1.687354
 H        -1.871067         2.356209        -1.262621
 H        -2.109363         3.678391         1.331861
 H        -0.621893         4.537722        -0.900749
 H        -0.612838         5.185269         0.841039
 H         1.751091         2.235805         1.303698
 H         1.086408         3.540328         2.450243
 H        -0.673336         2.019107         2.559222
