19
Iteration:  1748charge 0 multiplicity 1
 O         0.385255         0.226688         0.351290
 C        -0.679040         1.193032         0.642306
 C        -2.138679         0.952263         0.378131
 C        -1.668434         2.166581        -0.205043
 C        -1.326261         3.345182         0.882469
 C        -0.390313         4.435580         0.338468
 O         0.945921         3.799994         0.153559
 C         0.985983         2.991899         1.389222
 C        -0.362773         2.282494         1.656553
 H         0.163119        -0.453827         0.956412
 H        -2.272095         0.240197        -0.447308
 H        -2.995695         0.831330         1.225914
 H        -1.618046         2.531818        -1.217019
 H        -2.295307         3.601875         1.395311
 H        -0.808253         4.681430        -0.719738
 H        -0.286351         5.418042         0.878014
 H         1.745961         2.202072         1.364350
 H         1.138900         3.759339         2.280560
 H        -0.499774         2.126054         2.704899
