19
Iteration:  4405
 O         0.147827         0.173191         0.163841
 C        -0.654166         1.126793         0.660076
 C        -2.135044         0.865395         0.503527
 C        -1.498376         2.027763        -0.267309
 C        -1.262584         3.263953         0.643148
 C        -0.297912         4.252069        -0.005229
 O         0.855874         4.322552         0.950079
 C         1.036888         2.985429         1.405415
 C        -0.386287         2.376442         1.525851
 H         0.191908        -0.635920         0.713873
 H        -2.555970         0.036810        -0.117506
 H        -2.846221         1.291504         1.182627
 H        -1.698200         1.857235        -1.342799
 H        -2.068667         3.901893         1.044115
 H        -0.003180         4.045348        -1.027212
 H        -0.658939         5.219887        -0.113135
 H         1.708596         2.367485         0.767360
 H         1.507856         2.804668         2.436862
 H        -0.658963         2.194685         2.557001
