19
Iteration:  2209
 O         0.408175         0.294223         0.250926
 C        -0.642203         1.235323         0.544276
 C        -2.128576         0.983932         0.639632
 C        -1.618549         2.104488        -0.227369
 C        -1.421014         3.279731         0.743486
 C        -0.403452         4.388561         0.248474
 O         0.970228         3.851714         0.334108
 C         0.977450         2.961996         1.491091
 C        -0.390759         2.302712         1.504711
 H         0.204757        -0.676439         0.580011
 H        -2.490880        -0.029185         0.337676
 H        -2.514138         1.355069         1.587107
 H        -1.822291         2.235729        -1.331067
 H        -2.207621         3.708338         1.243131
 H        -0.653270         4.736916        -0.753237
 H        -0.535066         5.230635         0.874446
 H         1.655301         2.195787         1.276797
 H         1.207807         3.489035         2.429180
 H        -0.754735         2.113651         2.546640
