19
Iteration:  1705
 O         0.350928         0.314889         0.229149
 C        -0.679697         1.240021         0.695519
 C        -2.142175         0.981886         0.492071
 C        -1.502535         2.104806        -0.243938
 C        -1.371986         3.245457         0.788473
 C        -0.376147         4.397353         0.320251
 O         0.932674         3.805800         0.189549
 C         0.963886         2.949549         1.426550
 C        -0.428918         2.389391         1.724160
 H         0.028734        -0.650139         0.286322
 H        -2.291800        -0.060715         0.180945
 H        -2.937623         1.232075         1.354031
 H        -1.454418         1.946573        -1.330745
 H        -2.291970         3.719607         1.201543
 H        -0.650225         4.944131        -0.652041
 H        -0.391982         5.106948         1.136549
 H         1.733396         2.261408         1.120591
 H         1.403521         3.529995         2.306434
 H        -0.619811         2.114133         2.743667
