19
Iteration:  2799
 O         0.360572         0.386233         0.313383
 C        -0.647123         1.267028         0.684396
 C        -2.196424         0.872069         0.487996
 C        -1.567484         2.055874        -0.181464
 C        -1.413199         3.304611         0.701630
 C        -0.423757         4.361499         0.216855
 O         0.953230         3.893384         0.372671
 C         1.062110         2.915824         1.392204
 C        -0.357624         2.376862         1.629607
 H         0.008977        -0.556854         0.057028
 H        -2.333266        -0.003771        -0.123260
 H        -2.801893         1.018723         1.389796
 H        -1.667895         2.106834        -1.267974
 H        -2.371794         3.761532         1.188579
 H        -0.668313         4.378471        -0.908418
 H        -0.624519         5.310637         0.738047
 H         1.582994         2.056024         1.187459
 H         1.527005         3.221624         2.359845
 H        -0.532208         2.171456         2.721890
