19
Iteration:  4960charge 0 multiplicity 1
 O         0.385840         0.369028         0.416920
 C        -0.694958         1.237617         0.700092
 C        -2.096884         0.896975         0.244990
 C        -1.405918         2.160437        -0.264578
 C        -1.330346         3.272053         0.799751
 C        -0.424776         4.378879         0.289775
 O         0.832043         3.733951         0.200778
 C         0.929506         3.003768         1.518168
 C        -0.454131         2.330556         1.774326
 H         0.059674        -0.258987        -0.254711
 H        -2.086067        -0.086640        -0.377639
 H        -2.949466         0.976946         1.002965
 H        -1.361568         2.383788        -1.355879
 H        -2.252794         3.622462         1.316566
 H        -0.597025         4.675806        -0.744958
 H        -0.368362         5.370731         0.826875
 H         1.729631         2.251525         1.402222
 H         1.386948         3.688128         2.210955
 H        -0.705727         2.137136         2.837027
