19
Iteration:  2591charge 0 multiplicity 1
 O         0.283807         0.216917         0.232936
 C        -0.636704         1.187846         0.626408
 C        -2.077571         0.830171         0.571696
 C        -1.705371         2.246140        -0.201682
 C        -1.428676         3.282242         0.753444
 C        -0.388605         4.314349         0.191792
 O         0.962819         3.805621         0.303841
 C         1.013205         3.074395         1.471303
 C        -0.383649         2.383842         1.696747
 H         1.227580         0.403031         0.077214
 H        -2.260494         0.069346        -0.180285
 H        -2.733340         0.869912         1.404404
 H        -1.824332         2.291509        -1.306651
 H        -2.138049         3.816907         1.209706
 H        -0.475339         4.380790        -0.934536
 H        -0.543673         5.309466         0.674036
 H         1.984273         2.416793         1.469151
 H         1.221826         3.682998         2.355449
 H        -0.511985         2.335888         2.817204
