19
Iteration:    79
 O         0.347242         0.084166         0.327950
 C        -0.634510         1.118371         0.607921
 C        -2.171683         1.048285         0.607288
 C        -1.573107         2.104928        -0.244923
 C        -1.285074         3.236784         0.780901
 C        -0.451284         4.484809         0.313788
 O         0.871801         4.003855         0.321984
 C         0.958897         3.060464         1.284697
 C        -0.300021         2.283890         1.515223
 H         0.291331        -0.599031         0.996611
 H        -2.480633         0.143014         0.058686
 H        -2.633225         1.251372         1.604738
 H        -1.739520         2.187694        -1.345800
 H        -2.152425         3.419727         1.373297
 H        -0.693137         4.754805        -0.762602
 H        -0.536534         5.406094         0.954443
 H         1.685127         2.311142         0.896257
 H         1.226383         3.379051         2.314762
 H        -0.377510         2.062319         2.616333
