19
Iteration:  4681
 O         0.205168         0.026989         0.333287
 C        -0.654506         1.104617         0.597452
 C        -2.157185         0.927720         0.638521
 C        -1.522980         2.033334        -0.292285
 C        -1.291519         3.194453         0.584041
 C        -0.271025         4.316998         0.030212
 O         0.809581         4.375268         0.970172
 C         1.071469         3.047631         1.284784
 C        -0.339235         2.355529         1.468212
 H        -0.162755        -0.522813        -0.408244
 H        -2.854084         0.221793         0.034311
 H        -2.762326         1.373237         1.450111
 H        -1.661260         2.128701        -1.401096
 H        -2.210806         3.590590         0.962415
 H         0.020972         4.029814        -0.987242
 H        -0.780188         5.275426        -0.056311
 H         1.662016         2.546149         0.564307
 H         1.606181         2.881774         2.191129
 H        -0.502165         2.060539         2.584714
