19
Iteration:  1998charge 0 multiplicity 1
 O         0.237369         0.127443         0.259407
 C        -0.628705         1.192649         0.610608
 C        -2.121014         0.833549         0.528728
 C        -1.557381         2.041000        -0.216975
 C        -1.314248         3.258021         0.754901
 C        -0.305097         4.538110         0.348549
 O         0.905372         3.859657         0.269848
 C         0.989234         3.095025         1.435752
 C        -0.397668         2.423331         1.539693
 H         0.032751        -0.546964         0.845408
 H        -2.396931        -0.094947        -0.046520
 H        -2.746841         1.074992         1.361400
 H        -1.799847         2.216017        -1.257918
 H        -2.076319         3.803309         1.292148
 H        -0.462240         4.950548        -0.673759
 H        -0.410809         5.363350         1.132997
 H         1.923808         2.457361         1.332317
 H         0.959407         3.703239         2.369584
 H        -0.674522         2.465104         2.641759
