19
Iteration:  4794
 O         0.312088         0.252237         0.279551
 C        -0.686641         1.131897         0.582538
 C        -2.199293         0.894663         0.512833
 C        -1.636228         2.038088        -0.231484
 C        -1.248099         3.211629         0.646483
 C        -0.310925         4.297073         0.053498
 O         0.965670         4.221816         0.689073
 C         0.947589         3.020112         1.486504
 C        -0.416503         2.300736         1.536489
 H        -0.132569        -0.479563        -0.081571
 H        -2.368646        -0.050285         0.032093
 H        -2.569098         1.050888         1.634125
 H        -1.722475         2.083938        -1.286808
 H        -2.058987         3.793029         1.178535
 H        -0.151374         4.166107        -1.016054
 H        -0.775567         5.318095         0.347481
 H         1.736955         2.343630         1.146482
 H         1.394176         3.224319         2.422353
 H        -0.582547         2.021189         2.584467
