19
Iteration:  2302charge 0 multiplicity 1
 O         0.355609         0.299375         0.292742
 C        -0.601556         1.225020         0.545770
 C        -2.109406         0.978503         0.518758
 C        -1.574381         2.090295        -0.233121
 C        -1.378930         3.288113         0.755930
 C        -0.382910         4.393437         0.370355
 O         0.911298         3.827780         0.225581
 C         0.960958         2.933132         1.418439
 C        -0.403898         2.348279         1.655518
 H         0.236604        -0.283297         0.996439
 H        -2.368817         0.104170        -0.010840
 H        -2.769097         0.988044         1.443924
 H        -1.904416         2.052968        -1.291496
 H        -2.436021         3.734408         1.191307
 H        -0.455415         4.834355        -0.648133
 H        -0.388233         5.303394         1.041174
 H         1.802607         2.176068         1.123955
 H         1.230112         3.587841         2.224636
 H        -0.719938         2.159313         2.737801
