19
Iteration:  2603
 O         0.245377         0.234762         0.190605
 C        -0.656818         1.232952         0.648125
 C        -2.097525         0.968910         0.533616
 C        -1.547758         2.080623        -0.199249
 C        -1.365345         3.306679         0.796775
 C        -0.430182         4.251788         0.176196
 O         0.897626         3.763191         0.288601
 C         1.006932         3.098567         1.557007
 C        -0.321008         2.399748         1.656520
 H         1.039440         0.895186         0.144727
 H        -2.391947         0.074868        -0.039357
 H        -2.617772         1.028571         1.474902
 H        -1.804115         2.216060        -1.249909
 H        -2.222279         3.600242         1.259956
 H        -0.684166         4.430910        -0.924856
 H        -0.474444         5.246668         0.668536
 H         1.849849         2.360060         1.417396
 H         1.169385         3.822362         2.360637
 H        -0.604213         2.050253         2.681087
