19
Iteration:  1599charge 0 multiplicity 1
 O         0.218253         0.359632         0.042575
 C        -0.698889         1.168596         0.684784
 C        -2.195489         0.806274         0.634651
 C        -1.614584         2.023551        -0.166778
 C        -1.383915         3.239453         0.666805
 C        -0.358010         4.332830         0.212245
 O         1.083784         3.888400         0.356364
 C         1.067644         3.073930         1.566997
 C        -0.372324         2.485940         1.632265
 H         0.399073        -0.649684         0.379090
 H        -2.265029        -0.052930         0.072149
 H        -2.845826         0.963050         1.381120
 H        -1.790507         2.044189        -1.283907
 H        -2.265217         3.760389         1.065629
 H        -0.576233         4.615041        -0.763661
 H        -0.558724         5.237044         0.912982
 H         1.900664         2.369709         1.359151
 H         1.327728         3.675572         2.602558
 H        -0.876316         2.280031         2.603578
