19
Iteration:  2088charge 0 multiplicity 1
 O         0.318220         0.293719         0.224347
 C        -0.696469         1.247979         0.637709
 C        -2.141797         0.804820         0.559155
 C        -1.675930         2.029052        -0.240646
 C        -1.358504         3.386905         0.740948
 C        -0.374395         4.442077         0.293713
 O         0.969812         3.835206         0.321443
 C         1.041334         2.990562         1.422256
 C        -0.379496         2.369642         1.619139
 H         0.359252        -0.301844         0.917580
 H        -2.271541        -0.092642         0.004695
 H        -2.962214         0.997390         1.284139
 H        -1.459502         2.106908        -1.326239
 H        -2.263916         3.693550         1.137323
 H        -0.531220         4.711475        -0.752645
 H        -0.396606         5.366949         0.949054
 H         1.725422         2.259260         1.121160
 H         1.370328         3.539591         2.337859
 H        -0.544287         2.178619         2.692404
