19
Iteration:  3281charge 0 multiplicity 1
 O         0.343449         0.298563         0.337003
 C        -0.649493         1.167020         0.617268
 C        -2.128989         0.870643         0.542679
 C        -1.511651         2.098698        -0.282450
 C        -1.355382         3.268046         0.590617
 C        -0.342710         4.420682         0.341690
 O         0.932074         3.798115         0.347352
 C         0.904891         3.083054         1.523079
 C        -0.414438         2.342843         1.600415
 H         0.338538         0.056558        -0.668282
 H        -2.480468         0.073496        -0.147936
 H        -2.944595         0.981362         1.268265
 H        -1.669317         2.146096        -1.378865
 H        -2.291931         3.561138         1.184081
 H        -0.451741         4.995639        -0.613563
 H        -0.330425         5.201565         1.147095
 H         1.873347         2.346043         1.487372
 H         0.910476         3.741466         2.423408
 H        -0.772107         2.106680         2.643677
