19
Iteration:   342charge 0 multiplicity 1
 O         0.357713         0.191340         0.368136
 C        -0.721412         1.093880         0.673493
 C        -2.194612         0.892577         0.387393
 C        -1.531423         2.169877        -0.110582
 C        -1.318042         3.296309         0.865192
 C        -0.398769         4.464073         0.360563
 O         0.814509         3.879132         0.162936
 C         1.048461         3.040960         1.279294
 C        -0.334436         2.342702         1.579925
 H         0.364257        -0.354475         1.096338
 H        -2.313813         0.283633        -0.531154
 H        -3.077217         0.796403         1.123795
 H        -1.524599         2.215211        -1.159335
 H        -2.235034         3.767202         1.367661
 H        -0.598297         5.095420        -0.527799
 H        -0.157014         5.132359         1.267667
 H         1.992117         2.399153         1.066082
 H         1.351004         3.592815         2.269685
 H        -0.546374         2.109720         2.590219
