19
Iteration:  2368charge 0 multiplicity 1
 O         0.354405         0.258611         0.334306
 C        -0.654182         1.238624         0.612104
 C        -2.122182         0.996048         0.496758
 C        -1.604978         2.118081        -0.192267
 C        -1.324209         3.295845         0.846861
 C        -0.431776         4.354407         0.192293
 O         0.894151         3.829585         0.316312
 C         1.021557         2.976715         1.489523
 C        -0.361836         2.347451         1.543296
 H         0.253384        -0.287445        -0.529150
 H        -2.456545         0.131078        -0.093734
 H        -2.635529         1.042198         1.477513
 H        -1.657980         2.264984        -1.299625
 H        -2.276766         3.587415         1.479616
 H        -0.734192         4.342662        -0.842900
 H        -0.552601         5.372655         0.557419
 H         1.952877         2.220703         1.474786
 H         1.033663         3.641410         2.347222
 H        -0.556753         2.121216         2.651021
