19
Iteration:   822charge 0 multiplicity 1
 O         0.302344         0.306207         0.160606
 C        -0.601241         1.262327         0.508674
 C        -2.105617         0.970573         0.740248
 C        -1.678674         2.103526        -0.256883
 C        -1.320911         3.263560         0.745370
 C        -0.360776         4.318284         0.177483
 O         0.883889         3.811238         0.365654
 C         0.976251         2.992111         1.520434
 C        -0.348002         2.377499         1.545021
 H         0.762808        -0.065944         1.007662
 H        -2.356765        -0.067999         0.292021
 H        -2.568185         1.073486         1.769381
 H        -1.871773         2.360800        -1.290481
 H        -2.154993         3.611344         1.338620
 H        -0.590784         4.575916        -0.838780
 H        -0.582635         5.210473         0.870049
 H         1.784153         2.152677         1.262145
 H         1.120499         3.570124         2.427951
 H        -0.643883         2.019906         2.455552
