19
Iteration:  4096charge 0 multiplicity 1
 O         0.231672         0.110334         0.214944
 C        -0.633560         1.137314         0.531986
 C        -2.145800         0.955623         0.678390
 C        -1.631206         1.980930        -0.270028
 C        -1.241723         3.212063         0.434999
 C        -0.208721         4.344842        -0.036284
 O         0.833828         4.329145         1.005615
 C         1.044581         2.962111         1.485785
 C        -0.381540         2.347755         1.409225
 H        -0.351221        -0.722632         0.496815
 H        -2.619071        -0.005785         0.293598
 H        -2.772470         1.322605         1.580882
 H        -1.909369         2.123901        -1.330984
 H        -2.221995         3.619637         0.935400
 H         0.158034         4.270598        -1.051483
 H        -0.680368         5.215827         0.267536
 H         1.744306         2.396780         0.979438
 H         1.297990         3.168024         2.590665
 H        -0.702751         2.077834         2.404037
