19
Iteration:  1364
 O         0.411933         0.323418         0.242308
 C        -0.690198         1.215024         0.613875
 C        -2.102090         0.837848         0.552269
 C        -1.713292         2.176509        -0.120566
 C        -1.379459         3.310792         0.825190
 C        -0.338174         4.424892         0.247317
 O         1.027388         3.765840         0.173912
 C         0.897757         2.999425         1.481069
 C        -0.398938         2.350194         1.554859
 H         0.315061        -0.364026         0.944279
 H        -2.323180         0.204942        -0.373098
 H        -2.897236         0.725558         1.388445
 H        -1.821714         2.124713        -1.196362
 H        -2.079866         3.762476         1.484576
 H        -0.804860         4.854588        -0.746402
 H        -0.259064         5.169955         1.020130
 H         1.726230         2.307167         1.492081
 H         1.216860         3.651861         2.298031
 H        -0.790030         2.131593         2.659726
