19
Iteration:   475
 O         0.331304         0.392667         0.034628
 C        -0.670327         1.156052         0.671795
 C        -2.120151         0.983976         0.677118
 C        -1.519362         2.147380        -0.110698
 C        -1.317762         3.303761         0.764026
 C        -0.420259         4.313774         0.054275
 O         0.882577         3.842560         0.303111
 C         1.000097         2.998909         1.568642
 C        -0.371068         2.233354         1.701840
 H         0.465555        -0.422219         0.414679
 H        -2.547494         0.129920         0.095178
 H        -2.700857         1.185147         1.637432
 H        -1.855763         2.241741        -1.180926
 H        -2.191379         3.748356         1.393967
 H        -0.608969         4.140553        -1.060967
 H        -0.569379         5.363639         0.349704
 H         1.880672         2.381688         1.365340
 H         1.141448         3.647987         2.400932
 H        -0.794256         1.949846         2.740513
