19
Iteration:  2024
 O         0.257785         0.160257         0.301421
 C        -0.643299         1.214737         0.582813
 C        -2.108811         0.962526         0.576829
 C        -1.624887         2.139472        -0.254606
 C        -1.317865         3.207439         0.697430
 C        -0.467466         4.377305         0.281371
 O         0.990362         3.987272         0.317728
 C         1.069721         3.032382         1.456494
 C        -0.348953         2.282202         1.579596
 H         0.018033        -0.515294         0.937431
 H        -2.428175         0.243608        -0.152671
 H        -2.843393         1.125609         1.435734
 H        -1.808799         2.187617        -1.336868
 H        -2.026126         3.824031         1.204875
 H        -0.672902         4.574737        -0.770253
 H        -0.743795         5.281208         0.827035
 H         1.909701         2.465298         1.349021
 H         1.088388         3.548000         2.483001
 H        -0.546392         2.084193         2.562296
