19
Iteration:  3544
 O         0.121834         0.011121         0.368672
 C        -0.687491         1.221963         0.616233
 C        -2.104568         0.904902         0.627975
 C        -1.499947         1.994835        -0.348367
 C        -1.248243         3.257933         0.571527
 C        -0.386651         4.418559         0.079437
 O         0.833611         4.234252         0.808634
 C         1.062197         2.926573         1.350624
 C        -0.329356         2.397818         1.515007
 H         0.867245         0.240968        -0.308765
 H        -2.252375        -0.029008         0.087738
 H        -2.850028         1.188066         1.314217
 H        -1.681782         1.911647        -1.454687
 H        -2.141804         3.587924         1.156175
 H        -0.121217         4.320766        -0.947501
 H        -0.770698         5.513842         0.335311
 H         1.653594         2.287609         0.580163
 H         1.666418         3.069628         2.429780
 H        -0.725919         2.288391         2.534660
