19
Iteration:  1717charge 0 multiplicity 1
 O         0.331037         0.346827         0.328325
 C        -0.612671         1.257043         0.641661
 C        -2.091586         1.016013         0.506299
 C        -1.520428         2.180252        -0.257758
 C        -1.366828         3.263809         0.790782
 C        -0.458312         4.356897         0.345925
 O         0.880706         3.741596         0.221938
 C         1.011745         2.918273         1.393161
 C        -0.374434         2.324939         1.623399
 H        -0.006950        -0.591483         0.579851
 H        -2.349187         0.260268        -0.217830
 H        -2.794403         1.169185         1.402858
 H        -1.535953         2.395963        -1.376568
 H        -2.309931         3.539672         1.241859
 H        -0.800142         4.654007        -0.669361
 H        -0.368355         5.233743         0.949760
 H         1.663203         2.098159         1.318131
 H         1.272130         3.581466         2.248726
 H        -0.592178         2.210777         2.683499
