19
Iteration:  1811charge 0 multiplicity 1
 O         0.292537         0.239006         0.193791
 C        -0.632830         1.142594         0.571191
 C        -2.215307         0.978054         0.635764
 C        -1.561675         2.122241        -0.204510
 C        -1.296931         3.217536         0.689876
 C        -0.344657         4.384698         0.286059
 O         0.941908         3.940811         0.337043
 C         0.966820         3.001750         1.470088
 C        -0.387295         2.336436         1.597060
 H         0.390704        -0.309372         0.926909
 H        -2.528175         0.208762        -0.027283
 H        -2.557437         1.159241         1.691265
 H        -1.786517         2.089905        -1.254597
 H        -2.250961         3.765058         1.083076
 H        -0.462378         4.623799        -0.832979
 H        -0.659043         5.302690         0.816541
 H         1.840048         2.344622         0.984819
 H         1.169890         3.526770         2.386779
 H        -0.630888         1.985336         2.670253
