19
Iteration:  1680
 O         0.256736         0.336136         0.175449
 C        -0.741157         1.133862         0.699518
 C        -2.164319         0.843869         0.577489
 C        -1.524838         2.090952        -0.167033
 C        -1.297234         3.264453         0.675110
 C        -0.363031         4.476305         0.319640
 O         0.972256         3.846254         0.298640
 C         1.002055         2.989615         1.461720
 C        -0.362288         2.417854         1.564519
 H         0.174216        -0.691461         0.462253
 H        -2.498722         0.125598        -0.269547
 H        -2.913088         0.783274         1.483608
 H        -1.584439         1.780232        -1.170131
 H        -2.282711         3.705956         1.154439
 H        -0.578256         4.832054        -0.737560
 H        -0.469281         5.337091         1.056426
 H         2.013417         2.414881         1.271337
 H         1.138611         3.634167         2.461403
 H        -0.638928         2.333781         2.615240
