19
Iteration:  4088
 O         0.252200         0.120838         0.253533
 C        -0.674597         1.124971         0.521364
 C        -2.170671         0.933031         0.660478
 C        -1.688427         1.986087        -0.346656
 C        -1.207244         3.217152         0.483490
 C        -0.225755         4.415447        -0.056168
 O         0.822300         4.256015         0.995708
 C         1.025122         2.987554         1.504156
 C        -0.319781         2.318750         1.460282
 H        -0.297649        -0.735710         0.460542
 H        -2.566015         0.000416         0.179122
 H        -2.538481         1.267708         1.731890
 H        -1.972280         2.162811        -1.403584
 H        -2.008728         3.689828         1.040889
 H         0.209807         4.273273        -1.154343
 H        -0.793188         5.361682         0.094071
 H         2.011674         2.627104         0.892998
 H         1.395279         2.995519         2.551970
 H        -0.884899         2.313541         2.401980
