19
Iteration:   176charge 0 multiplicity 1
 O         0.327170         0.497900         0.203117
 C        -0.645205         1.253484         0.641810
 C        -2.036099         0.858849         0.577927
 C        -1.730384         2.110978        -0.118994
 C        -1.445687         3.309465         0.776277
 C        -0.369390         4.322283         0.240967
 O         0.971394         3.691476         0.173843
 C         1.021459         2.957377         1.469245
 C        -0.381652         2.396623         1.627558
 H         0.555990        -0.139936         0.998198
 H        -2.229314         0.064561        -0.184817
 H        -2.586882         0.766584         1.500361
 H        -1.998254         2.122572        -1.218212
 H        -2.330789         3.683342         1.388431
 H        -0.491450         4.701061        -0.730363
 H        -0.357816         5.087398         1.053093
 H         1.701807         2.129886         1.268865
 H         1.353351         3.677287         2.209304
 H        -0.737835         2.145469         2.585487
