19
Iteration:  2111
 O         0.376473         0.345937         0.271684
 C        -0.682276         1.191187         0.567479
 C        -2.127265         0.987002         0.578409
 C        -1.592187         2.138517        -0.226565
 C        -1.299599         3.264756         0.747909
 C        -0.394138         4.339864         0.309508
 O         0.935918         3.754732         0.215386
 C         0.941626         3.030161         1.484362
 C        -0.408021         2.301044         1.548981
 H         0.614495        -0.196303         1.139319
 H        -2.508593         0.202549        -0.072098
 H        -2.667547         1.059885         1.568710
 H        -2.009514         2.451645        -1.222941
 H        -2.187652         3.483400         1.285398
 H        -0.603491         4.871946        -0.618888
 H        -0.447062         5.061841         1.193958
 H         1.695014         2.386919         1.336313
 H         1.084113         3.689834         2.371185
 H        -0.609528         2.116563         2.580873
