19
Iteration:  3163
 O         0.352712         0.325102         0.211195
 C        -0.678143         1.248230         0.665697
 C        -2.190859         1.016675         0.422284
 C        -1.418651         2.004641        -0.283579
 C        -1.381829         3.285588         0.644551
 C        -0.412233         4.337971         0.347868
 O         0.937811         3.834913         0.322308
 C         0.953852         2.962270         1.542355
 C        -0.435218         2.327073         1.676595
 H         0.712897        -0.089590         0.978895
 H        -2.472903         0.171349        -0.224261
 H        -2.821658         1.235396         1.293780
 H        -1.373246         1.950919        -1.387612
 H        -2.276654         3.608111         1.153146
 H        -0.677028         4.905017        -0.638594
 H        -0.554686         5.169980         1.044631
 H         1.737451         2.277557         1.332083
 H         1.235837         3.553823         2.484512
 H        -0.788109         2.238824         2.720438
