19
Iteration:   242
 O         0.264550         0.290259         0.072551
 C        -0.561640         1.277866         0.535024
 C        -2.081341         0.958523         0.660328
 C        -1.730400         2.094514        -0.179502
 C        -1.373244         3.217895         0.855008
 C        -0.416871         4.265772         0.112213
 O         0.966081         3.832823         0.317712
 C         1.024828         3.099630         1.597249
 C        -0.365989         2.345802         1.611602
 H         0.376504        -0.332478         0.720212
 H        -2.390273        -0.036124         0.279428
 H        -2.506696         1.224680         1.638326
 H        -1.691432         2.209613        -1.281198
 H        -2.051908         3.827410         1.536924
 H        -0.519869         4.309932        -0.948794
 H        -0.538850         5.343564         0.534444
 H         1.793838         2.325116         1.384509
 H         1.177403         3.794784         2.492244
 H        -0.672294         2.016974         2.575609
