19
Iteration:   541charge 0 multiplicity 1
 O         0.395979         0.314595         0.192031
 C        -0.672501         1.172593         0.634750
 C        -2.114910         0.830366         0.533847
 C        -1.625905         2.159154        -0.137254
 C        -1.378720         3.415966         0.871776
 C        -0.386031         4.401202         0.271169
 O         0.916952         3.745378         0.171944
 C         1.024573         2.962477         1.446854
 C        -0.439378         2.368815         1.612574
 H         0.528971        -0.328753         0.936878
 H        -2.389102        -0.042912        -0.013920
 H        -2.686281         0.904243         1.494544
 H        -1.810521         2.401196        -1.170618
 H        -2.290151         3.905816         1.395188
 H        -0.570424         4.679958        -0.811270
 H        -0.321288         5.329764         0.805113
 H         1.804251         2.252625         1.253986
 H         1.263249         3.621465         2.251924
 H        -0.807482         2.359221         2.709132
