19
Iteration:  1859charge 0 multiplicity 1
 O         0.248370         0.283967         0.095293
 C        -0.690694         1.171293         0.630870
 C        -2.145451         0.891849         0.597276
 C        -1.570507         2.091781        -0.182588
 C        -1.286205         3.279649         0.769238
 C        -0.387563         4.320303         0.110980
 O         0.982889         3.917785         0.351320
 C         1.006984         3.038899         1.515855
 C        -0.360159         2.339657         1.755811
 H         0.094235        -0.496494         0.821328
 H        -2.432891         0.132371        -0.208530
 H        -2.858323         1.121904         1.407342
 H        -1.730420         2.234821        -1.274769
 H        -2.158607         3.805515         1.161374
 H        -0.507488         4.567584        -0.952418
 H        -0.608925         5.290184         0.669360
 H         1.767294         2.485521         1.214325
 H         1.262018         3.615974         2.420805
 H        -0.707212         2.185607         2.712614
