19
Iteration:    75
 O         0.344453         0.130907         0.341275
 C        -0.620676         1.112312         0.585632
 C        -2.173489         1.073336         0.612632
 C        -1.553764         2.064124        -0.258267
 C        -1.275148         3.207498         0.791522
 C        -0.450316         4.484782         0.301996
 O         0.852446         4.001531         0.336638
 C         0.971565         3.030238         1.297067
 C        -0.296164         2.275189         1.502535
 H         0.247420        -0.590131         1.094642
 H        -2.725683         0.285313         0.114575
 H        -2.635332         1.298401         1.548191
 H        -1.862649         2.251501        -1.266577
 H        -2.277004         3.430236         1.356235
 H        -0.660302         4.784312        -0.670072
 H        -0.638076         5.466285         0.807474
 H         1.762741         2.430666         0.904625
 H         1.413304         3.382770         2.247310
 H        -0.383585         1.944864         2.504879
