19
Iteration:  4287
 O         0.277270         0.156607         0.426979
 C        -0.719476         1.155484         0.614100
 C        -2.187668         0.966341         0.459435
 C        -1.604964         2.039765        -0.336152
 C        -1.239696         3.203432         0.585212
 C        -0.272708         4.319764         0.104166
 O         0.844494         4.304904         0.986015
 C         1.036349         2.913564         1.245012
 C        -0.361737         2.342083         1.489585
 H        -0.153243        -0.627211         0.228099
 H        -2.347505         0.038694        -0.207559
 H        -2.996245         0.957121         1.315686
 H        -1.424053         2.164602        -1.407325
 H        -2.214190         3.602886         1.027347
 H        -0.050031         4.138325        -0.978903
 H        -0.606615         5.398508         0.087290
 H         1.409967         2.438906         0.337671
 H         1.792455         2.825734         2.017955
 H        -0.550135         2.181945         2.557533
