19
Iteration:  1798charge 0 multiplicity 1
 O         0.287139         0.267519         0.150176
 C        -0.665380         1.179244         0.681016
 C        -2.121107         1.054097         0.645215
 C        -1.440686         2.054768        -0.243732
 C        -1.336883         3.274913         0.714549
 C        -0.450355         4.365414         0.263934
 O         0.927692         3.882534         0.347723
 C         0.973734         2.963033         1.416030
 C        -0.398818         2.342904         1.572866
 H         0.397218        -0.559047         0.746983
 H        -2.595569         0.179039         0.229338
 H        -2.721417         1.401631         1.438905
 H        -1.504585         2.161312        -1.322425
 H        -2.304230         3.551964         1.172452
 H        -0.670424         4.790041        -0.712631
 H        -0.477722         5.144606         1.018400
 H         1.779595         2.100794         1.304440
 H         1.274608         3.465203         2.355681
 H        -0.726746         2.325226         2.684609
