19
Iteration:  4991
 O         0.462442         0.381390         0.502170
 C        -0.659614         1.216031         0.610315
 C        -2.094213         0.905993         0.464798
 C        -1.587050         2.104094        -0.350616
 C        -1.335267         3.292482         0.637673
 C        -0.330087         4.436212         0.383987
 O         0.890512         3.832166         0.323231
 C         0.870288         2.889479         1.437439
 C        -0.501429         2.288257         1.559030
 H         0.558487        -0.042558        -0.387779
 H        -2.429019        -0.128918         0.073757
 H        -2.716706         1.201584         1.383547
 H        -1.679696         2.091408        -1.464100
 H        -2.182815         3.726194         1.113911
 H        -0.362876         5.010183        -0.485494
 H        -0.469629         5.158478         1.175039
 H         1.562639         2.100913         1.065926
 H         1.188746         3.577411         2.276304
 H        -0.852946         2.071437         2.627307
