19
Iteration:  2329charge 0 multiplicity 1
 O         0.360792         0.401242         0.267629
 C        -0.709799         1.144816         0.705074
 C        -2.169590         0.815633         0.563662
 C        -1.602014         2.071897        -0.249415
 C        -1.370429         3.308910         0.707102
 C        -0.383812         4.469395         0.374736
 O         0.978952         3.817629         0.257736
 C         0.992513         2.914072         1.387431
 C        -0.387511         2.431112         1.594003
 H         0.070778        -0.458345         0.170904
 H        -2.324779        -0.112947        -0.067537
 H        -2.870149         0.910869         1.376367
 H        -1.336033         1.914393        -1.276557
 H        -2.222006         3.638939         1.246125
 H        -0.442400         4.931861        -0.630766
 H        -0.377162         5.336885         1.098951
 H         1.744448         2.222085         1.230825
 H         1.211046         3.552691         2.298436
 H        -0.708062         2.467837         2.643181
