19
Iteration:   794charge 0 multiplicity 1
 O         0.402989         0.443380         0.094998
 C        -0.678398         1.186198         0.630571
 C        -2.301810         0.917249         0.600948
 C        -1.612204         2.051697        -0.115898
 C        -1.351816         3.279144         0.831599
 C        -0.327877         4.323862         0.121939
 O         0.981653         3.839921         0.297615
 C         0.975078         2.977517         1.465870
 C        -0.393898         2.353655         1.693900
 H         0.887442        -0.127755         0.850150
 H        -2.490622         0.059805        -0.018969
 H        -2.868842         0.858029         1.516878
 H        -1.653530         2.184564        -1.258302
 H        -2.256296         3.804619         1.337981
 H        -0.667827         4.268658        -0.949549
 H        -0.477303         5.308817         0.513589
 H         1.646909         2.220127         1.287954
 H         1.253106         3.590426         2.363777
 H        -0.621692         2.006838         2.809891
