19
Iteration:  4477
 O         0.258782         0.193897         0.326319
 C        -0.686441         1.176622         0.581939
 C        -2.193619         0.791919         0.501075
 C        -1.633400         2.083649        -0.254525
 C        -1.288382         3.232854         0.626716
 C        -0.234815         4.169678        -0.068113
 O         0.850169         4.328316         0.962071
 C         1.023973         2.972164         1.375616
 C        -0.322084         2.359214         1.613046
 H         0.111688        -0.083916        -0.641306
 H        -2.583761         0.066316        -0.268089
 H        -2.950255         1.152186         1.230755
 H        -1.708235         2.366556        -1.313285
 H        -2.004387         3.925727         1.105107
 H         0.075547         3.841475        -1.015362
 H        -0.649636         5.215115        -0.305585
 H         1.441952         2.276361         0.647692
 H         1.704712         2.995765         2.246505
 H        -0.554143         2.239421         2.714501
