19
Iteration:  2192
 O         0.407827         0.372693         0.254414
 C        -0.678343         1.183072         0.568130
 C        -2.150665         0.921056         0.618877
 C        -1.670057         2.116851        -0.220297
 C        -1.238852         3.290805         0.737336
 C        -0.395372         4.347320         0.236442
 O         0.900403         3.821909         0.356025
 C         0.997452         2.975032         1.426959
 C        -0.405009         2.345891         1.591958
 H         0.109597        -0.554385         0.610067
 H        -2.563368         0.329260        -0.205456
 H        -2.787389         0.964008         1.522397
 H        -1.876427         2.159768        -1.257044
 H        -2.221810         3.632296         1.303288
 H        -0.388119         4.576807        -0.855155
 H        -0.635459         5.362900         0.771167
 H         1.947944         2.305775         1.300443
 H         1.132068         3.581117         2.361962
 H        -0.541135         2.143672         2.655773
