19
Iteration:  3265charge 0 multiplicity 1
 O         0.358387         0.137702         0.254580
 C        -0.631983         1.205983         0.616581
 C        -2.082767         0.996219         0.445217
 C        -1.498159         2.066967        -0.285043
 C        -1.291042         3.296520         0.770895
 C        -0.435159         4.418997         0.236989
 O         0.883556         3.816164         0.323752
 C         0.931291         3.070135         1.639020
 C        -0.436298         2.390251         1.657914
 H        -0.038354        -0.248891        -0.635589
 H        -2.243844         0.046961        -0.051908
 H        -2.688483         1.164365         1.341543
 H        -1.429122         2.145289        -1.354199
 H        -2.293824         3.742455         1.099343
 H        -0.619923         4.666543        -0.795647
 H        -0.510752         5.246667         0.973276
 H         1.694226         2.397261         1.597459
 H         1.046694         3.878097         2.450834
 H        -0.841150         2.125453         2.636212
