19
Iteration:   310charge 0 multiplicity 1
 O         0.249132         0.307586         0.233211
 C        -0.635357         1.258827         0.650650
 C        -2.055046         1.023090         0.604739
 C        -1.463388         2.113225        -0.220146
 C        -1.299635         3.212953         0.709497
 C        -0.481734         4.321217         0.276623
 O         0.798592         3.867970         0.291627
 C         1.069875         2.952669         1.371388
 C        -0.349882         2.350739         1.655071
 H        -0.061260        -0.564832         0.799735
 H        -2.400126         0.136960         0.071829
 H        -2.663439         1.384707         1.536253
 H        -1.289945         2.067146        -1.238941
 H        -2.298685         3.425482         1.141660
 H        -0.803341         4.931279        -0.639309
 H        -0.564167         5.039803         1.189705
 H         1.685327         2.162573         0.784057
 H         1.506618         3.524092         2.270418
 H        -0.680810         2.068450         2.597220
