19
Iteration:  4207
 O         0.315831         0.215568         0.236645
 C        -0.698008         1.180764         0.625835
 C        -2.209356         0.899462         0.604895
 C        -1.496290         1.956477        -0.302341
 C        -1.287809         3.315707         0.481393
 C        -0.297041         4.339074         0.087849
 O         0.893460         4.221907         0.878255
 C         0.979302         2.875363         1.381567
 C        -0.421487         2.361046         1.525012
 H        -0.064078        -0.606707         0.328571
 H        -2.664967         0.054928         0.074619
 H        -2.712204         1.486601         1.478322
 H        -1.530348         1.779633        -1.377114
 H        -2.233776         3.754943         0.982006
 H        -0.162634         4.455450        -0.997520
 H        -0.586899         5.228474         0.492868
 H         1.625772         2.224862         0.836186
 H         1.371223         3.063766         2.440614
 H        -0.608348         2.208524         2.557156
