19
Iteration:  4230charge 0 multiplicity 1
 O         0.215142         0.166450         0.321984
 C        -0.685764         1.082330         0.683774
 C        -2.156689         0.927423         0.450355
 C        -1.549121         2.004238        -0.363627
 C        -1.242916         3.198316         0.624036
 C        -0.311408         4.343429         0.092178
 O         0.921774         4.337734         0.795702
 C         1.063492         2.940667         1.456543
 C        -0.422098         2.342364         1.524272
 H        -0.246322        -0.669047        -0.103082
 H        -2.433590        -0.012230        -0.083162
 H        -2.868635         1.288749         1.346075
 H        -1.787961         2.249019        -1.388026
 H        -2.225925         3.537159         1.142910
 H        -0.168388         4.251122        -0.975051
 H        -0.731902         5.272326         0.334650
 H         1.600868         2.335804         0.777004
 H         1.650841         3.094745         2.423033
 H        -0.710038         2.305961         2.542596
