19
Iteration:  3959
 O         0.187901         0.023519         0.252927
 C        -0.698832         1.130000         0.606485
 C        -2.223708         1.023651         0.507777
 C        -1.431247         1.965177        -0.347557
 C        -1.282963         3.205805         0.551950
 C        -0.386504         4.377270         0.152030
 O         0.952548         4.283163         0.835540
 C         1.056277         2.994569         1.384507
 C        -0.379776         2.348205         1.548462
 H         0.439205        -0.326394         1.089321
 H        -2.498517         0.050837         0.104107
 H        -2.955970         1.435286         1.185139
 H        -1.311226         1.988045        -1.450233
 H        -2.313705         3.569046         0.876921
 H        -0.320555         4.513061        -0.958225
 H        -0.909534         5.229301         0.730754
 H         1.687841         2.460243         0.735356
 H         1.421147         3.264379         2.323565
 H        -0.712383         2.151187         2.605185
