19
Iteration:  4737
 O         0.359488         0.205119         0.323056
 C        -0.712386         1.154001         0.627000
 C        -2.191704         0.861281         0.619664
 C        -1.579665         2.063777        -0.270359
 C        -1.293474         3.295031         0.632268
 C        -0.312698         4.290814         0.028204
 O         0.870517         4.273890         0.856003
 C         1.023766         2.870855         1.359492
 C        -0.412646         2.351620         1.519311
 H         0.190672        -0.115219        -0.633853
 H        -2.507958        -0.030042        -0.032875
 H        -3.052897         1.153960         1.331154
 H        -1.704335         2.099104        -1.384741
 H        -2.110439         3.771005         1.152808
 H        -0.027069         3.760046        -0.887280
 H        -0.547476         5.331933        -0.333086
 H         1.378417         2.381297         0.505824
 H         1.684709         2.936783         2.139616
 H        -0.625310         2.185095         2.612617
