19
Iteration:  2731charge 0 multiplicity 1
 O         0.123087         0.184461         0.230055
 C        -0.609196         1.207137         0.642534
 C        -2.072731         0.881742         0.585665
 C        -1.534366         2.074216        -0.219860
 C        -1.243840         3.297383         0.755499
 C        -0.432396         4.370508         0.256541
 O         0.941998         3.832527         0.246105
 C         0.911487         3.091566         1.481294
 C        -0.333105         2.416830         1.594372
 H         1.047917         0.298649         0.466232
 H        -2.170294        -0.003200        -0.053061
 H        -2.555303         0.878448         1.513196
 H        -1.652169         2.110366        -1.301046
 H        -2.290147         3.703545         1.190453
 H        -0.730772         4.679433        -0.719750
 H        -0.581114         5.141942         1.042728
 H         1.762300         2.674437         1.624533
 H         1.012091         3.799621         2.325205
 H        -0.508452         2.138436         2.622194
