19
Iteration:  3825
 O         0.229995        -0.025463         0.299818
 C        -0.745693         1.107243         0.627093
 C        -2.207728         0.995032         0.485219
 C        -1.492132         2.045156        -0.309553
 C        -1.222228         3.269403         0.614242
 C        -0.267539         4.280802         0.022314
 O         0.819257         4.347702         0.953745
 C         1.052186         3.020938         1.404484
 C        -0.352270         2.316408         1.516582
 H         0.018078        -0.160983        -0.583064
 H        -2.483093         0.011381         0.048468
 H        -2.892291         1.366476         1.393319
 H        -1.882404         2.131340        -1.308888
 H        -2.225517         3.610098         1.129839
 H         0.044845         4.011603        -1.021134
 H        -0.666018         5.319280        -0.122075
 H         1.772755         2.529696         0.618888
 H         1.601372         3.153197         2.361938
 H        -0.640649         2.231475         2.619631
