19
Iteration:  4257
 O         0.219779         0.079733         0.476659
 C        -0.649291         1.136882         0.549294
 C        -2.177010         0.974083         0.388136
 C        -1.567229         2.131258        -0.278275
 C        -1.297745         3.287782         0.750839
 C        -0.336643         4.310112         0.023269
 O         0.802435         4.296081         0.826885
 C         1.122946         2.948619         1.403382
 C        -0.339302         2.260493         1.456143
 H        -0.168308        -0.756687        -0.000724
 H        -2.208920         0.254245        -0.433617
 H        -2.841795         0.874286         1.179246
 H        -1.524634         2.501044        -1.329096
 H        -2.222763         3.487891         1.181835
 H        -0.108460         3.769330        -0.914528
 H        -0.574347         5.460962         0.040281
 H         1.624619         2.440624         0.540866
 H         1.630542         3.158373         2.298956
 H        -0.423978         1.993306         2.585787
