19
Iteration:  2466charge 0 multiplicity 1
 O         0.333067         0.216199         0.328537
 C        -0.692448         1.274193         0.558264
 C        -2.134786         0.924317         0.482487
 C        -1.721622         2.159504        -0.192701
 C        -1.351789         3.275972         0.834407
 C        -0.397638         4.364145         0.171093
 O         0.938881         3.820553         0.268887
 C         0.994376         2.989214         1.473476
 C        -0.303626         2.307595         1.678787
 H         1.174767         0.776213         0.425872
 H        -2.362451         0.003754        -0.147548
 H        -2.625494         0.919315         1.483469
 H        -1.751338         2.320837        -1.260222
 H        -2.109218         3.793816         1.271879
 H        -0.725014         4.540893        -0.839605
 H        -0.484015         5.359058         0.685977
 H         1.925162         2.363933         1.258704
 H         1.136831         3.664399         2.324966
 H        -0.632770         1.895311         2.657542
