19
Iteration:  3621charge 0 multiplicity 1
 O         0.138082         0.048034         0.325473
 C        -0.688713         1.148560         0.611433
 C        -2.140935         0.897106         0.618356
 C        -1.552675         1.985480        -0.283186
 C        -1.309024         3.257362         0.548489
 C        -0.303055         4.335500         0.083243
 O         0.874896         4.303651         0.913161
 C         0.992317         2.977159         1.309138
 C        -0.323587         2.378986         1.474958
 H         1.065298         0.366319         0.180437
 H        -2.385306        -0.012737         0.136578
 H        -2.674603         1.235658         1.453916
 H        -1.608173         1.923240        -1.377966
 H        -2.126396         3.738753         0.988404
 H         0.059581         4.198708        -0.945792
 H        -0.568908         5.461090         0.063202
 H         1.433368         2.475031         0.433717
 H         1.898154         2.711945         1.961397
 H        -0.794495         2.291500         2.455574
