19
Iteration:  1323charge 0 multiplicity 1
 O         0.363147         0.521239         0.125616
 C        -0.609498         1.270652         0.733288
 C        -2.154008         0.992044         0.528416
 C        -1.469386         2.103761        -0.136468
 C        -1.332116         3.294939         0.842539
 C        -0.463353         4.266329         0.201088
 O         0.906740         3.647544         0.126172
 C         0.956591         2.913171         1.507452
 C        -0.447576         2.383573         1.737767
 H         0.348935        -0.442867         0.491314
 H        -2.206840         0.068800        -0.061511
 H        -2.982704         1.223318         1.277483
 H        -1.182733         2.272551        -1.207628
 H        -2.350929         3.631758         1.281379
 H        -0.750863         4.594135        -0.930946
 H        -0.466358         5.162115         0.854691
 H         1.674007         2.052881         1.536774
 H         1.146227         3.669783         2.352290
 H        -0.700424         2.148997         2.888617
