19
Iteration:  1652
 O         0.285315         0.197308         0.169234
 C        -0.620253         1.271842         0.491918
 C        -2.136738         0.958168         0.584447
 C        -1.678181         2.157496        -0.198538
 C        -1.361166         3.195351         0.792084
 C        -0.379284         4.294538         0.210526
 O         0.973771         3.886970         0.411645
 C         1.005276         3.035130         1.502609
 C        -0.331710         2.397906         1.588834
 H         0.535306        -0.271218         1.078606
 H        -2.627441         0.131223         0.160172
 H        -2.702073         1.354956         1.427010
 H        -1.737419         2.261460        -1.303924
 H        -2.200755         3.647282         1.227715
 H        -0.542201         4.276041        -0.884739
 H        -0.644861         5.309823         0.606587
 H         1.795193         2.436929         1.201284
 H         1.203289         3.527465         2.413714
 H        -0.585286         2.024570         2.601581
