19
Iteration:  3228
 O         0.295135         0.263554         0.300012
 C        -0.641803         1.177841         0.641210
 C        -2.183201         0.921603         0.368710
 C        -1.556702         2.130588        -0.282174
 C        -1.262050         3.248059         0.745254
 C        -0.416711         4.332810         0.180445
 O         0.932756         3.968844         0.413102
 C         0.982722         3.046678         1.577761
 C        -0.358582         2.302274         1.631040
 H        -0.069584        -0.704432         0.239193
 H        -2.294798        -0.004552        -0.227610
 H        -2.954648         0.949028         1.163801
 H        -1.509213         2.154644        -1.390389
 H        -1.997726         3.651223         1.341564
 H        -0.728645         4.580822        -0.914928
 H        -0.613104         5.301254         0.675529
 H         2.016608         2.592735         1.644815
 H         1.000336         3.609240         2.521120
 H        -0.643529         2.011697         2.682310
