19
Iteration:  3813
 O         0.155851         0.001653         0.333425
 C        -0.634967         1.089043         0.593752
 C        -2.239118         0.994830         0.470386
 C        -1.563814         2.121791        -0.294287
 C        -1.215351         3.193499         0.624780
 C        -0.316979         4.229523         0.029197
 O         0.792249         4.354836         0.895183
 C         1.070663         3.034381         1.454361
 C        -0.241960         2.337480         1.499544
 H         0.241638        -0.222889        -0.645970
 H        -2.581865         0.151346        -0.192268
 H        -2.988227         1.166899         1.424353
 H        -1.425896         2.315082        -1.366853
 H        -2.052701         3.860588         1.096091
 H         0.090272         3.903468        -0.993907
 H        -0.874315         5.157372         0.043896
 H         1.889828         2.380307         0.877651
 H         1.425579         3.094429         2.504066
 H        -0.590282         2.263629         2.579210
