19
Iteration:  2590
 O         0.287181         0.215706         0.237030
 C        -0.629332         1.191190         0.625058
 C        -2.077060         0.822247         0.571970
 C        -1.718183         2.243842        -0.196078
 C        -1.423433         3.283301         0.758847
 C        -0.386599         4.321330         0.186033
 O         0.967282         3.811606         0.302596
 C         1.011279         3.071784         1.469382
 C        -0.391182         2.378312         1.692499
 H         1.183933         0.389802         0.081459
 H        -2.253706         0.074666        -0.167711
 H        -2.753907         0.853433         1.379187
 H        -1.820406         2.306328        -1.310365
 H        -2.127964         3.822246         1.191424
 H        -0.466415         4.408443        -0.911464
 H        -0.529810         5.323908         0.676311
 H         1.992016         2.392279         1.471908
 H         1.217103         3.676333         2.348528
 H        -0.533693         2.336569         2.804983
