19
Iteration:  4913
 O         0.391775         0.217732         0.300946
 C        -0.624649         1.236705         0.605162
 C        -2.116871         0.888126         0.426982
 C        -1.530374         2.125679        -0.328505
 C        -1.304505         3.252202         0.774718
 C        -0.404186         4.412436         0.265364
 O         0.877039         3.821173         0.349275
 C         0.928112         3.070431         1.530366
 C        -0.453330         2.352781         1.629385
 H         0.035466        -0.558443         0.882556
 H        -2.370473         0.076845        -0.290380
 H        -2.947471         1.180525         1.175904
 H        -1.486855         2.181804        -1.410748
 H        -2.227311         3.695070         0.996183
 H        -0.492516         4.894350        -0.693195
 H        -0.382632         5.213737         1.019564
 H         1.909968         2.546383         1.468760
 H         1.198001         3.715847         2.414680
 H        -0.852202         2.139828         2.679152
