19
Iteration:  3551
 O         0.119251         0.057925         0.408190
 C        -0.643787         1.162771         0.634388
 C        -2.094048         0.895318         0.588977
 C        -1.541344         2.103326        -0.324741
 C        -1.306406         3.264036         0.571438
 C        -0.350093         4.357392         0.077999
 O         0.843173         4.231025         0.817225
 C         1.041831         2.952917         1.339444
 C        -0.338389         2.355563         1.500182
 H         0.919260         0.205991        -0.245568
 H        -2.337430        -0.018448         0.016827
 H        -2.872025         1.212546         1.327770
 H        -1.429057         1.997096        -1.376467
 H        -2.149703         3.542799         1.154233
 H        -0.134444         4.300952        -1.035909
 H        -0.854328         5.337155         0.186605
 H         1.624981         2.417684         0.593321
 H         1.779062         2.966409         2.067286
 H        -0.558736         2.098409         2.570248
