19
Iteration:  1609
 O         0.228392         0.311914         0.011667
 C        -0.698681         1.161793         0.675796
 C        -2.220339         0.853033         0.616458
 C        -1.603328         1.999865        -0.171310
 C        -1.351859         3.270062         0.758764
 C        -0.331148         4.307456         0.182843
 O         1.050046         3.948471         0.403106
 C         1.030145         3.090899         1.508417
 C        -0.401252         2.422800         1.613424
 H         0.480841        -0.416745         0.736125
 H        -2.449794         0.026298         0.001812
 H        -2.793779         0.836761         1.461455
 H        -1.525615         1.891792        -1.273873
 H        -2.130007         3.786742         1.266483
 H        -0.454793         4.481464        -0.871292
 H        -0.428685         5.321799         0.716629
 H         1.717306         2.258732         1.475487
 H         1.275440         3.794842         2.406158
 H        -0.617711         2.358548         2.713379
