19
Iteration:   793
 O         0.403654         0.443941         0.091494
 C        -0.682707         1.189491         0.638624
 C        -2.307304         0.908139         0.596321
 C        -1.614475         2.055876        -0.111780
 C        -1.349162         3.263676         0.834457
 C        -0.317531         4.324863         0.118044
 O         0.977640         3.840755         0.295461
 C         0.971444         2.985114         1.468625
 C        -0.396188         2.363356         1.693607
 H         0.880657        -0.147668         0.823282
 H        -2.472984         0.009440        -0.041380
 H        -2.904820         0.851144         1.527889
 H        -1.618582         2.195891        -1.258503
 H        -2.244093         3.833018         1.345530
 H        -0.661291         4.294179        -0.942324
 H        -0.465992         5.297273         0.522185
 H         1.674208         2.187437         1.290456
 H         1.282142         3.586328         2.361405
 H        -0.605223         2.030693         2.807805
