19
Iteration:    66charge 0 multiplicity 1
 O         0.323949         0.211325         0.356098
 C        -0.641722         1.143907         0.528392
 C        -2.191236         1.022893         0.645380
 C        -1.502544         2.072872        -0.259348
 C        -1.307621         3.211424         0.754092
 C        -0.523438         4.439430         0.278621
 O         0.843811         4.040128         0.339220
 C         1.124095         2.932146         1.341893
 C        -0.282360         2.244515         1.517100
 H         0.157634        -0.493229         1.133551
 H        -2.859166         0.371965         0.145534
 H        -2.663504         1.536766         1.475389
 H        -1.902777         2.198550        -1.243921
 H        -2.282304         3.568684         1.247585
 H        -0.707636         4.618578        -0.742574
 H        -0.737274         5.309089         0.972837
 H         1.896178         2.333213         0.949059
 H         1.447416         3.489381         2.221344
 H        -0.517060         2.010416         2.527753
