19
Iteration:  3482charge 0 multiplicity 1
 O         0.111839         0.042828         0.356951
 C        -0.607961         1.206580         0.599582
 C        -2.048444         0.926251         0.526393
 C        -1.584808         2.116292        -0.300140
 C        -1.347389         3.235219         0.692946
 C        -0.404750         4.263182         0.102960
 O         0.936610         4.208472         0.663656
 C         1.027163         3.032472         1.429795
 C        -0.344377         2.306156         1.526403
 H         0.970191         0.444348         0.081417
 H        -2.272196         0.115060        -0.191236
 H        -2.761979         1.135685         1.364564
 H        -1.564625         2.268049        -1.407238
 H        -2.236422         3.640657         1.229510
 H        -0.330454         4.208080        -1.041040
 H        -0.728006         5.226181         0.279924
 H         1.718995         2.321009         1.034749
 H         1.442859         3.176209         2.328247
 H        -0.682912         2.184572         2.563385
