19
Iteration:  3371
 O         0.231102         0.121105         0.219525
 C        -0.667687         1.215030         0.605886
 C        -2.136671         0.908803         0.474687
 C        -1.538693         2.113299        -0.264512
 C        -1.328573         3.270909         0.683746
 C        -0.385473         4.310145         0.291841
 O         0.960788         3.754201         0.326307
 C         0.929899         3.278798         1.695489
 C        -0.331519         2.336035         1.608241
 H         0.970680         0.735323        -0.270315
 H        -2.353055         0.150870        -0.295002
 H        -2.687465         0.838426         1.434708
 H        -1.456163         2.254185        -1.339564
 H        -2.293184         3.600155         1.144929
 H        -0.652878         4.626140        -0.787646
 H        -0.501307         5.212756         0.831187
 H         2.072391         2.927535         1.975666
 H         0.703767         4.163491         2.334990
 H        -0.758830         2.045985         2.583753
