19
Iteration:  3862charge 0 multiplicity 1
 O         0.298299         0.231061         0.381743
 C        -0.729462         1.115011         0.689692
 C        -2.216921         0.921480         0.613604
 C        -1.581628         2.016383        -0.381690
 C        -1.233961         3.244120         0.457559
 C        -0.213813         4.352937         0.045069
 O         0.804487         4.239977         1.111881
 C         1.099071         2.858193         1.200008
 C        -0.430982         2.400740         1.438757
 H        -0.002996        -0.303576        -0.400757
 H        -2.402462        -0.032210         0.121880
 H        -2.907858         1.122954         1.336186
 H        -1.945164         1.809438        -1.410080
 H        -2.057282         3.799704         1.041528
 H         0.148703         4.132423        -0.910826
 H        -0.535329         5.399431         0.209241
 H         1.507719         2.330735         0.272747
 H         1.663691         2.751714         2.141605
 H        -0.810257         2.333859         2.468442
