19
Iteration:  3770
 O         0.167995         0.048578         0.205274
 C        -0.698968         1.170500         0.603788
 C        -2.119891         0.923852         0.549213
 C        -1.626214         2.044915        -0.237061
 C        -1.251689         3.262769         0.586115
 C        -0.267862         4.277611         0.000885
 O         0.893500         4.278855         0.893790
 C         1.041589         2.972059         1.446782
 C        -0.418170         2.369099         1.513067
 H         1.041620         0.326237         0.338511
 H        -2.514093         0.188693        -0.181846
 H        -2.823888         1.140290         1.468116
 H        -1.576961         1.902418        -1.312465
 H        -2.220057         3.612337         1.175505
 H         0.045821         3.994823        -0.968768
 H        -0.671558         5.294290         0.069977
 H         1.640075         2.375812         0.728131
 H         1.504442         3.079923         2.450223
 H        -0.711921         2.375222         2.601636
