19
Iteration:  3116
 O         0.303008         0.210196         0.328713
 C        -0.588810         1.305956         0.561732
 C        -2.002548         0.884567         0.382777
 C        -1.600415         2.222521        -0.218528
 C        -1.373205         3.260142         0.777135
 C        -0.419250         4.333576         0.209529
 O         0.913031         3.765709         0.311660
 C         0.974019         3.042285         1.620141
 C        -0.411089         2.371273         1.684107
 H        -0.118380        -0.468600        -0.145682
 H        -2.078232         0.176633        -0.439898
 H        -2.858552         0.852351         1.061620
 H        -1.738912         2.647645        -1.184994
 H        -2.207791         3.757960         1.078939
 H        -0.670461         4.713228        -0.806472
 H        -0.617459         5.221077         0.822900
 H         1.923509         2.316176         1.549192
 H         1.172831         3.835881         2.370438
 H        -0.591823         2.056986         2.741202
