19
Iteration:  1291
 O         0.361578         0.390448         0.195608
 C        -0.655316         1.192005         0.626255
 C        -2.117145         0.939451         0.596762
 C        -1.617144         2.135266        -0.149713
 C        -1.359333         3.290613         0.750004
 C        -0.409864         4.367202         0.225262
 O         0.912166         3.700326         0.247609
 C         1.016543         3.003004         1.508474
 C        -0.397989         2.347545         1.570505
 H         0.493315        -0.295908         0.810956
 H        -2.404205         0.241117        -0.189395
 H        -2.848827         0.984540         1.428146
 H        -1.724025         2.198031        -1.254040
 H        -2.223279         3.776412         1.357170
 H        -0.621123         4.679603        -0.822386
 H        -0.531936         5.188511         0.984948
 H         1.938649         2.370747         1.551303
 H         1.211308         3.694548         2.368001
 H        -0.573690         2.178985         2.623499
