19
Iteration:  1347charge 0 multiplicity 1
 O         0.333673         0.441917         0.211654
 C        -0.671153         1.246366         0.656609
 C        -2.146656         0.766019         0.445448
 C        -1.669570         2.106524        -0.161005
 C        -1.334802         3.349652         0.803488
 C        -0.293791         4.362437         0.265792
 O         0.863473         3.655654         0.210597
 C         1.068981         3.042568         1.457370
 C        -0.425187         2.405282         1.711303
 H         0.308002        -0.410118         0.800099
 H        -2.117446        -0.059789        -0.188923
 H        -2.789186         0.700998         1.293737
 H        -1.813408         2.384645        -1.242809
 H        -2.254247         3.905518         1.250665
 H        -0.503992         4.687762        -0.757154
 H        -0.314636         5.265350         0.985282
 H         1.898519         2.289255         1.361855
 H         1.212105         3.797802         2.287106
 H        -0.504785         2.302459         2.787984
