19
Iteration:  3992charge 0 multiplicity 1
 O         0.277751         0.153002         0.344500
 C        -0.684047         1.142840         0.544040
 C        -2.165833         0.940954         0.543212
 C        -1.561834         2.039913        -0.310095
 C        -1.289529         3.232054         0.515025
 C        -0.325949         4.375699         0.106808
 O         0.968997         4.255059         0.908498
 C         0.995647         2.902363         1.303163
 C        -0.455482         2.327383         1.484434
 H         0.305298        -0.318625         1.175431
 H        -2.372305         0.051845        -0.000003
 H        -2.803945         1.173928         1.363264
 H        -1.709068         1.949512        -1.395360
 H        -2.240408         3.648172         0.891056
 H        -0.252726         4.613306        -0.939633
 H        -0.751495         5.332593         0.567002
 H         1.604573         2.240346         0.751735
 H         1.467220         2.886870         2.242169
 H        -0.736637         2.142462         2.561186
