19
Iteration:  4176
 O         0.302926         0.206935         0.255156
 C        -0.683329         1.211369         0.571319
 C        -2.214887         0.888784         0.512487
 C        -1.628957         2.024063        -0.306917
 C        -1.297527         3.312283         0.582857
 C        -0.244264         4.205147         0.061683
 O         0.934654         4.291530         0.924525
 C         0.980650         2.919271         1.346242
 C        -0.420450         2.332440         1.558015
 H         0.437007        -0.197177         1.218057
 H        -2.469563         0.019451        -0.112803
 H        -3.021510         0.966567         1.360937
 H        -1.753991         1.990434        -1.382014
 H        -2.175686         3.739079         1.095083
 H        -0.085346         3.999339        -0.946152
 H        -0.540687         5.252477         0.021182
 H         1.493058         2.310147         0.660556
 H         1.600048         2.867120         2.199364
 H        -0.568278         2.146447         2.608915
