19
Iteration:  4918
 O         0.372626         0.215254         0.324844
 C        -0.597782         1.221690         0.604353
 C        -2.126820         0.901478         0.348952
 C        -1.511476         2.130639        -0.298182
 C        -1.302715         3.241745         0.808328
 C        -0.394463         4.401185         0.255776
 O         0.888082         3.792474         0.302610
 C         0.947002         3.109258         1.553447
 C        -0.457905         2.350801         1.705327
 H         0.145243        -0.622518         0.651286
 H        -2.393193         0.060359        -0.329965
 H        -2.907486         1.112719         1.061240
 H        -1.670349         2.300106        -1.397646
 H        -2.311825         3.758019         1.055828
 H        -0.710830         4.918371        -0.704934
 H        -0.425747         5.335316         0.966928
 H         1.849230         2.508538         1.362366
 H         1.059723         3.817165         2.379478
 H        -0.856674         2.173091         2.671180
