19
Iteration:   677
 O         0.194821         0.228249         0.134346
 C        -0.627060         1.180517         0.746611
 C        -2.168088         0.802353         0.529045
 C        -1.432498         2.057411        -0.093758
 C        -1.337742         3.345413         0.737021
 C        -0.437958         4.440448         0.228959
 O         0.893342         3.949466         0.318601
 C         1.085928         2.961916         1.316034
 C        -0.374263         2.438484         1.747299
 H         0.238154        -0.551088         0.895313
 H        -2.380354        -0.004630        -0.153710
 H        -3.093022         0.833549         1.164679
 H        -1.472724         2.194920        -1.242220
 H        -2.177795         3.865119         1.084627
 H        -0.507504         4.922382        -0.766273
 H        -0.623622         5.203118         0.958519
 H         1.654911         2.085038         0.791599
 H         1.535798         3.395915         2.212660
 H        -0.473808         2.270680         2.761624
