19
Iteration:  4962charge 0 multiplicity 1
 O         0.402466         0.362886         0.418529
 C        -0.701469         1.246784         0.705578
 C        -2.114651         0.889837         0.261005
 C        -1.393148         2.172387        -0.274361
 C        -1.343663         3.266571         0.796688
 C        -0.433368         4.370586         0.300278
 O         0.843417         3.735274         0.200233
 C         0.938480         2.985151         1.528295
 C        -0.454388         2.343073         1.758140
 H         0.096052        -0.205203        -0.240852
 H        -2.152523        -0.019408        -0.380462
 H        -2.906661         0.909664         1.006297
 H        -1.416540         2.353279        -1.353532
 H        -2.336922         3.609067         1.286925
 H        -0.550340         4.772871        -0.763968
 H        -0.387026         5.401079         0.828516
 H         1.680801         2.217263         1.362072
 H         1.381067         3.709575         2.167745
 H        -0.702787         2.159461         2.777727
