19
Iteration:  2835
 O         0.288427         0.330245         0.255824
 C        -0.675119         1.191081         0.583840
 C        -2.157306         0.881259         0.499875
 C        -1.536019         2.089336        -0.169064
 C        -1.352076         3.323284         0.774190
 C        -0.371137         4.434973         0.272088
 O         0.952431         3.825487         0.253061
 C         0.918827         2.998618         1.495527
 C        -0.340974         2.271984         1.613981
 H         0.778815         0.048729         1.111398
 H        -2.286460        -0.081788        -0.047574
 H        -2.879340         0.955084         1.367295
 H        -1.650475         2.140732        -1.267125
 H        -2.264342         3.707693         1.161812
 H        -0.588603         4.678939        -0.831908
 H        -0.447549         5.374440         0.792852
 H         1.819240         2.358777         1.279018
 H         1.106554         3.691433         2.257480
 H        -0.664780         2.118967         2.673131
