19
Iteration:  2397
 O         0.293382         0.205856         0.291319
 C        -0.673399         1.200790         0.606681
 C        -2.109386         0.935070         0.543945
 C        -1.653330         2.135775        -0.193584
 C        -1.296422         3.277670         0.733323
 C        -0.408400         4.330100         0.258747
 O         0.960309         3.842776         0.261504
 C         1.020683         3.086609         1.533446
 C        -0.387572         2.330443         1.607485
 H         0.490686        -0.081839        -0.676427
 H        -2.414602         0.151170        -0.121296
 H        -2.567673         0.924649         1.619354
 H        -1.704410         2.214542        -1.291176
 H        -2.146852         3.621284         1.214179
 H        -0.681637         4.764586        -0.764240
 H        -0.543746         5.224202         0.925633
 H         1.887108         2.476504         1.620548
 H         0.871449         3.864690         2.327570
 H        -0.542198         2.271108         2.711150
