19
Iteration:   744
 O         0.380428         0.335209         0.149336
 C        -0.587334         1.251879         0.567528
 C        -2.056909         0.894450         0.619215
 C        -1.621797         2.152365        -0.158241
 C        -1.348666         3.344568         0.820829
 C        -0.363678         4.347428         0.219232
 O         0.888688         3.657667         0.237657
 C         0.902040         3.043992         1.474282
 C        -0.417450         2.375196         1.670062
 H         0.082355        -0.500387         0.367492
 H        -2.468889         0.018144         0.103095
 H        -2.692192         1.291339         1.464422
 H        -1.780620         2.320562        -1.205019
 H        -2.173697         3.721971         1.404588
 H        -0.580257         4.750043        -0.768508
 H        -0.325097         5.191849         0.950608
 H         1.816985         2.256745         1.493939
 H         1.120098         3.753822         2.304381
 H        -0.762602         2.160267         2.618528
