19
Iteration:  1420charge 0 multiplicity 1
 O         0.145409         0.166321         0.094603
 C        -0.701437         1.118414         0.757286
 C        -2.139854         0.880447         0.576876
 C        -1.423064         2.064832        -0.203801
 C        -1.297137         3.256660         0.739486
 C        -0.364474         4.367239         0.231868
 O         0.945628         4.053376         0.375495
 C         1.035996         3.078236         1.392126
 C        -0.341967         2.363779         1.652343
 H        -0.021061        -0.705740         0.679601
 H        -2.333860        -0.090158         0.132549
 H        -2.895959         1.256311         1.393534
 H        -1.514622         2.042401        -1.313637
 H        -2.151618         3.771179         1.142519
 H        -0.833639         4.677191        -0.829676
 H        -0.643801         5.198143         0.883436
 H         1.791552         2.402891         1.013349
 H         1.138426         3.670810         2.308974
 H        -0.592921         2.480653         2.798797
