19
Iteration:  4573
 O         0.207484         0.162498         0.325617
 C        -0.710839         1.120463         0.672573
 C        -2.146183         0.867808         0.516475
 C        -1.635532         2.056825        -0.335190
 C        -1.236193         3.250110         0.574835
 C        -0.303893         4.312372         0.107400
 O         0.894279         4.264924         0.833678
 C         1.033277         2.953504         1.329319
 C        -0.354362         2.309854         1.561167
 H         1.008662         0.293523         0.780513
 H        -2.416762         0.020763        -0.208749
 H        -2.978149         1.239777         1.170871
 H        -1.561541         2.026065        -1.425411
 H        -2.177851         3.650528         1.132827
 H        -0.213811         4.342014        -1.063049
 H        -0.821509         5.256515         0.320253
 H         1.500136         2.479312         0.348112
 H         1.558636         2.928449         2.221319
 H        -0.674334         2.251805         2.567785
