19
Iteration:   610charge 0 multiplicity 1
 O         0.254099         0.063735         0.360471
 C        -0.669944         1.178791         0.636579
 C        -2.052432         0.877328         0.546938
 C        -1.559083         2.139859        -0.191989
 C        -1.289122         3.317274         0.770495
 C        -0.414522         4.497939         0.362502
 O         0.906158         3.955206         0.234548
 C         1.004682         3.009587         1.326621
 C        -0.356267         2.358575         1.519957
 H        -0.151849        -0.724525         0.432246
 H        -2.161178        -0.063398        -0.023144
 H        -2.739233         1.049522         1.311601
 H        -1.911506         2.427210        -1.216927
 H        -2.148203         3.712187         1.264610
 H        -0.775652         5.129325        -0.501548
 H        -0.411805         5.119577         1.201776
 H         1.877905         2.431623         1.138012
 H         1.067109         3.639875         2.166587
 H        -0.553633         2.192956         2.539595
