19
Iteration:  1241
 O         0.284235         0.190279         0.169981
 C        -0.676881         1.105181         0.661427
 C        -2.228233         0.982896         0.643526
 C        -1.483013         2.055501        -0.181907
 C        -1.233607         3.292568         0.675446
 C        -0.437938         4.417817         0.230842
 O         0.903426         3.998796         0.368808
 C         0.967117         3.001266         1.409094
 C        -0.288313         2.334242         1.595475
 H         0.096140        -0.790616         0.560699
 H        -2.485640         0.111874         0.103942
 H        -2.830707         1.146137         1.518911
 H        -1.739108         2.182763        -1.267573
 H        -2.072785         3.613592         1.188905
 H        -0.611855         4.693612        -0.780687
 H        -0.768272         5.214231         0.881238
 H         1.850968         2.357701         1.170552
 H         1.253578         3.548165         2.355152
 H        -0.508902         2.398965         2.725906
