19
Iteration:   789
 O         0.401797         0.445296         0.080869
 C        -0.699485         1.201950         0.684177
 C        -2.314719         0.854366         0.573823
 C        -1.630026         2.081004        -0.103726
 C        -1.340952         3.213936         0.845734
 C        -0.294429         4.314967         0.105155
 O         0.964058         3.837934         0.288375
 C         0.966518         3.014680         1.482673
 C        -0.407518         2.394991         1.692155
 H         0.754589        -0.165179         0.646143
 H        -2.390091        -0.088131        -0.077151
 H        -3.000244         0.885391         1.485754
 H        -1.507870         2.218827        -1.143216
 H        -2.086162         3.845174         1.298620
 H        -0.578921         4.427067        -0.931482
 H        -0.427365         5.334822         0.603660
 H         1.776759         2.117151         1.305036
 H         1.390218         3.557704         2.334225
 H        -0.527632         2.202426         2.694302
