19
Iteration:  4317
 O         0.272393         0.184545         0.268307
 C        -0.752948         1.110999         0.651261
 C        -2.199491         0.873741         0.643690
 C        -1.474637         1.959978        -0.353249
 C        -1.193671         3.253822         0.434716
 C        -0.246532         4.432834         0.141206
 O         0.854791         4.272773         1.086407
 C         0.937361         2.886907         1.188331
 C        -0.436862         2.425660         1.476177
 H         0.030052        -0.724039         0.709922
 H        -2.553651         0.022567         0.018777
 H        -2.831214         1.105234         1.545967
 H        -1.354620         1.853127        -1.437327
 H        -2.222274         3.692899         0.639175
 H         0.021618         4.355010        -0.964953
 H        -0.610397         5.407843         0.310002
 H         1.385600         2.407384         0.282687
 H         1.718049         2.634146         2.019431
 H        -0.607650         2.390103         2.531655
