19
Iteration:   754charge 0 multiplicity 1
 O         0.308755         0.390428         0.129406
 C        -0.673213         1.314925         0.628510
 C        -2.062842         0.833424         0.636865
 C        -1.567579         2.149721        -0.170392
 C        -1.374535         3.296891         0.816106
 C        -0.334002         4.338251         0.218388
 O         0.918801         3.698659         0.204011
 C         0.948154         3.037478         1.519760
 C        -0.412795         2.364492         1.676475
 H        -0.097183        -0.399034         0.350425
 H        -2.136539        -0.019630        -0.017550
 H        -2.673502         0.728742         1.552233
 H        -1.622475         2.252268        -1.248097
 H        -2.288710         3.732327         1.136350
 H        -0.481615         4.657225        -0.830551
 H        -0.308186         5.273168         0.881057
 H         1.775187         2.224929         1.412442
 H         1.105566         3.789126         2.324541
 H        -0.579120         2.088141         2.678922
