19
Iteration:  2902charge 0 multiplicity 1
 O         0.257850         0.140381         0.318894
 C        -0.664856         1.183553         0.653860
 C        -2.121776         0.911604         0.455663
 C        -1.620575         2.100912        -0.209985
 C        -1.320183         3.264229         0.757871
 C        -0.377510         4.384235         0.200132
 O         0.964921         3.939918         0.313356
 C         0.987583         3.039450         1.518656
 C        -0.379581         2.377873         1.627033
 H         0.909635         0.586032        -0.182905
 H        -2.235767         0.081762        -0.267705
 H        -2.884384         0.753068         1.258651
 H        -1.835927         2.338102        -1.236804
 H        -2.156981         3.660994         1.279456
 H        -0.602333         4.694865        -0.839480
 H        -0.450596         5.309327         0.810423
 H         1.738902         2.170442         1.312442
 H         1.190513         3.541364         2.512212
 H        -0.664332         2.204550         2.692716
