19
Iteration:  2772
 O         0.325647         0.250521         0.339184
 C        -0.677483         1.158675         0.666007
 C        -2.182268         0.979193         0.554494
 C        -1.541131         2.095588        -0.196324
 C        -1.278823         3.229598         0.705030
 C        -0.411120         4.359856         0.242121
 O         0.918190         3.915369         0.298478
 C         0.978514         3.068035         1.453992
 C        -0.363520         2.286336         1.559071
 H         0.416930        -0.018742        -0.654805
 H        -2.494793         0.024847         0.097125
 H        -2.656344         1.260047         1.504687
 H        -1.597802         2.225111        -1.292601
 H        -2.124485         3.641307         1.273328
 H        -0.696126         4.569248        -0.746775
 H        -0.601842         5.311950         0.879439
 H         1.767367         2.183212         1.344224
 H         1.100023         3.591464         2.470592
 H        -0.689625         2.201270         2.602387
