19
Iteration:  3483
 O         0.110674         0.044589         0.354006
 C        -0.611823         1.200781         0.610845
 C        -2.044916         0.927437         0.518497
 C        -1.582733         2.111816        -0.292741
 C        -1.353645         3.226501         0.683769
 C        -0.405362         4.267022         0.103597
 O         0.936984         4.213818         0.664208
 C         1.028382         3.036588         1.431956
 C        -0.337992         2.304661         1.517019
 H         0.924908         0.423302         0.087790
 H        -2.309010         0.111452        -0.172706
 H        -2.730666         1.178922         1.395048
 H        -1.574693         2.270173        -1.386695
 H        -2.196023         3.630385         1.218128
 H        -0.301564         4.243430        -1.042565
 H        -0.741805         5.252105         0.280999
 H         1.729748         2.292380         1.021413
 H         1.414602         3.157240         2.377052
 H        -0.676990         2.182852         2.561340
