19
Iteration:  2617charge 0 multiplicity 1
 O         0.269054         0.314423         0.194502
 C        -0.593242         1.252924         0.627950
 C        -2.177303         0.951534         0.643225
 C        -1.504240         2.110269        -0.194449
 C        -1.282031         3.172278         0.794670
 C        -0.428055         4.373728         0.165287
 O         0.903819         3.739662         0.232869
 C         0.937702         3.077427         1.542145
 C        -0.386701         2.293702         1.670968
 H         1.008929         0.494195        -0.335550
 H        -2.350841         0.012853         0.085180
 H        -3.018510         1.381616         1.282438
 H        -1.324837         2.183219        -1.232464
 H        -2.207553         3.665484         1.344361
 H        -0.623573         4.531130        -0.915621
 H        -0.510987         5.308012         0.733909
 H         1.793185         2.542673         1.601848
 H         0.985734         3.835003         2.390560
 H        -0.701813         2.159830         2.698344
