19
Iteration:  3133charge 0 multiplicity 1
 O         0.337581         0.260239         0.313022
 C        -0.665845         1.216934         0.607055
 C        -2.129541         0.859530         0.285321
 C        -1.540684         2.134843        -0.227902
 C        -1.354495         3.363059         0.870518
 C        -0.372717         4.376484         0.277906
 O         0.934605         3.776303         0.296430
 C         0.940870         3.129038         1.540931
 C        -0.385254         2.321383         1.625216
 H        -0.172808        -0.551232         0.401999
 H        -2.141183         0.088503        -0.503073
 H        -2.786043         0.735809         1.142593
 H        -1.504487         2.185080        -1.349503
 H        -2.223934         3.641198         1.634529
 H        -0.575587         4.494098        -0.782628
 H        -0.283900         5.415852         0.707269
 H         1.796312         2.545699         1.612777
 H         0.928206         3.730863         2.471198
 H        -0.683916         2.087935         2.653942
