19
Iteration:  3508charge 0 multiplicity 1
 O         0.176768        -0.046994         0.291099
 C        -0.713788         1.128834         0.567605
 C        -2.255877         0.932224         0.680223
 C        -1.516675         1.938947        -0.347842
 C        -1.198893         3.236620         0.570724
 C        -0.369219         4.418679         0.131460
 O         0.895699         4.290048         0.718388
 C         1.065636         3.091414         1.448073
 C        -0.322016         2.294635         1.520868
 H         0.920022         0.545646        -0.123164
 H        -2.517419         0.123491        -0.001668
 H        -2.992863         1.304122         1.453942
 H        -1.587830         1.873494        -1.412395
 H        -2.080132         3.619186         1.001671
 H        -0.338995         4.547362        -0.977235
 H        -0.755792         5.496732         0.451474
 H         1.858569         2.312264         1.007557
 H         1.458022         3.270229         2.564160
 H        -0.786197         2.292037         2.535805
