19
Iteration:  1906
 O         0.337740         0.387571         0.207207
 C        -0.674896         1.229726         0.622423
 C        -2.163157         0.859463         0.537797
 C        -1.659246         2.086141        -0.187828
 C        -1.320035         3.320870         0.729429
 C        -0.329521         4.376178         0.265288
 O         0.944027         3.728944         0.185442
 C         0.987868         2.994191         1.558261
 C        -0.384614         2.398327         1.643707
 H         0.264923        -0.456169         0.801264
 H        -2.281084        -0.087972         0.055295
 H        -2.618618         0.971639         1.526738
 H        -1.814618         2.388731        -1.217367
 H        -2.238379         3.621532         1.195619
 H        -0.599999         4.968557        -0.592620
 H        -0.274053         5.188489         1.082765
 H         1.780968         2.194155         1.534554
 H         1.235028         3.870931         2.154994
 H        -0.825396         2.069512         2.624804
