19
Iteration:  1464
 O         0.269576         0.182891         0.336615
 C        -0.661980         1.240177         0.521297
 C        -2.155974         1.007166         0.598868
 C        -1.603428         2.142681        -0.312749
 C        -1.274803         3.205016         0.749959
 C        -0.411272         4.313116         0.366119
 O         0.905025         3.961630         0.304387
 C         1.045172         3.016682         1.386411
 C        -0.318842         2.292740         1.564176
 H         0.484668        -0.299635         1.240755
 H        -2.395284         0.097798         0.039705
 H        -2.867126         1.318218         1.486820
 H        -1.761669         2.372085        -1.379178
 H        -2.139258         3.614823         1.221507
 H        -0.645102         4.810294        -0.712564
 H        -0.646911         5.117697         1.124556
 H         1.810463         2.378622         0.958955
 H         1.239654         3.699663         2.284798
 H        -0.685626         1.739149         2.473698
