19
Iteration:   386
 O         0.302434         0.259039         0.254522
 C        -0.593024         1.221807         0.658289
 C        -2.122926         0.975240         0.525718
 C        -1.457264         2.174609        -0.182332
 C        -1.343881         3.285383         0.735089
 C        -0.513970         4.405631         0.330683
 O         0.795891         3.780457         0.255276
 C         1.038588         2.966480         1.327482
 C        -0.324055         2.363617         1.687591
 H         0.055457        -0.480262         0.706253
 H        -2.499611         0.195792        -0.195910
 H        -2.734265         1.232041         1.460912
 H        -1.304709         2.254317        -1.242876
 H        -2.332281         3.465670         1.309361
 H        -0.700967         4.700313        -0.726685
 H        -0.584371         5.237146         1.094027
 H         1.746291         2.106315         0.984348
 H         1.621704         3.500059         2.163154
 H        -0.432401         2.216881         2.785313
