19
Iteration:  1854charge 0 multiplicity 1
 O         0.222886         0.266789         0.124201
 C        -0.728081         1.207535         0.632246
 C        -2.126281         0.858623         0.572825
 C        -1.623272         2.073517        -0.177759
 C        -1.278291         3.282757         0.754943
 C        -0.356761         4.303261         0.144367
 O         1.001105         3.947462         0.372068
 C         0.994663         3.072894         1.496832
 C        -0.335125         2.337484         1.710892
 H         0.156308        -0.370392         0.793512
 H        -2.303597         0.232499        -0.259033
 H        -2.833270         0.970934         1.403107
 H        -1.777116         2.247172        -1.226197
 H        -2.250992         3.722496         1.143969
 H        -0.549098         4.495104        -0.943418
 H        -0.496398         5.227496         0.691098
 H         1.908456         2.313069         1.233136
 H         1.326843         3.750373         2.305253
 H        -0.713098         2.124361         2.793667
