19
Iteration:  1301
 O         0.446567         0.418295         0.145849
 C        -0.685927         1.140575         0.666958
 C        -2.161320         0.999091         0.576207
 C        -1.527827         2.142854        -0.181087
 C        -1.340154         3.333212         0.822075
 C        -0.390312         4.336379         0.203964
 O         0.835212         3.666067         0.258681
 C         0.946058         3.025592         1.445193
 C        -0.391162         2.326770         1.707732
 H         0.630119        -0.393624         0.646185
 H        -2.687382         0.340451        -0.142213
 H        -2.715927         1.212720         1.539145
 H        -1.540217         2.121873        -1.282909
 H        -2.361336         3.579010         1.270358
 H        -0.476032         4.534591        -0.935709
 H        -0.249549         5.351198         0.642604
 H         1.694199         2.217940         1.289930
 H         1.173593         3.728512         2.326940
 H        -0.754951         2.075527         2.765587
