19
Iteration:  4331charge 0 multiplicity 1
 O         0.233216         0.139225         0.265747
 C        -0.655884         1.143701         0.634540
 C        -2.151877         0.982706         0.539739
 C        -1.540419         1.912274        -0.333180
 C        -1.294522         3.235060         0.461852
 C        -0.212040         4.397436         0.134813
 O         0.862920         4.332066         1.037019
 C         1.003568         2.876615         1.267877
 C        -0.444009         2.330260         1.490352
 H         0.301602        -0.432368         0.975211
 H        -2.457183        -0.064890         0.128981
 H        -2.854434         1.364011         1.455477
 H        -1.713175         1.730246        -1.418441
 H        -2.193737         3.684078         1.086285
 H         0.272418         4.569963        -0.906339
 H        -0.868770         5.358112         0.280752
 H         1.281308         2.440263         0.285409
 H         1.779398         2.651238         1.969129
 H        -0.932242         2.406966         2.458319
