19
Iteration:   787
 O         0.391239         0.455095         0.070080
 C        -0.706586         1.205238         0.710068
 C        -2.308479         0.822530         0.561501
 C        -1.640576         2.090653        -0.097385
 C        -1.334416         3.201682         0.846505
 C        -0.296209         4.308961         0.106405
 O         0.962030         3.831921         0.286405
 C         0.976079         3.020542         1.486301
 C        -0.409009         2.406967         1.683034
 H         0.727728        -0.273068         0.668197
 H        -2.351259        -0.052834        -0.048966
 H        -2.998646         0.921960         1.396097
 H        -1.478047         2.225982        -1.123631
 H        -2.030672         3.830885         1.274764
 H        -0.523525         4.494807        -0.963138
 H        -0.413367         5.333418         0.641404
 H         1.749278         2.184304         1.321117
 H         1.424780         3.558497         2.330941
 H        -0.520074         2.281411         2.725765
