19
Iteration:  1782charge 0 multiplicity 1
 O         0.250010         0.299203         0.178560
 C        -0.686666         1.233455         0.701661
 C        -2.171600         0.925937         0.542691
 C        -1.477552         2.032484        -0.273944
 C        -1.307286         3.255298         0.708913
 C        -0.424358         4.475122         0.345616
 O         0.886136         3.808384         0.244274
 C         1.036038         2.970447         1.466000
 C        -0.338258         2.409870         1.726189
 H         0.109978        -0.477194         0.638396
 H        -2.386541        -0.001848         0.009009
 H        -2.981755         1.252825         1.325229
 H        -1.251000         1.935858        -1.380727
 H        -2.270809         3.587230         1.081559
 H        -0.522132         4.735151        -0.722590
 H        -0.613366         5.342644         1.027867
 H         1.791515         2.369939         1.106267
 H         1.558060         3.542624         2.322784
 H        -0.566122         2.134448         2.706550
