19
Iteration:  4513
 O         0.179105         0.122487         0.290916
 C        -0.685979         1.149137         0.630725
 C        -2.207055         0.924542         0.510533
 C        -1.476864         2.035753        -0.289355
 C        -1.271809         3.188177         0.630599
 C        -0.373164         4.298634         0.004166
 O         0.850175         4.283275         0.825167
 C         1.044933         2.990647         1.441210
 C        -0.287047         2.338141         1.581181
 H         0.310136        -0.104683        -0.706676
 H        -2.639938         0.045163         0.013976
 H        -2.876252         1.297128         1.221491
 H        -1.380427         2.187851        -1.404891
 H        -2.166495         3.534352         1.071028
 H        -0.035331         4.082623        -1.021424
 H        -0.664696         5.326422         0.222100
 H         1.890982         2.472578         0.915209
 H         1.459598         3.131313         2.546040
 H        -0.676318         2.215202         2.690663
