19
Iteration:   827
 O         0.299066         0.254896         0.141261
 C        -0.601658         1.300105         0.510411
 C        -2.130430         0.954116         0.711842
 C        -1.688951         2.037037        -0.236971
 C        -1.309619         3.291079         0.735697
 C        -0.379314         4.332643         0.242743
 O         0.931496         3.831949         0.337053
 C         0.965431         3.024728         1.514333
 C        -0.361702         2.373171         1.556779
 H         0.624550        -0.070120         0.996323
 H        -2.232625        -0.016579         0.352241
 H        -2.551532         1.048636         1.703855
 H        -1.928464         2.237757        -1.320736
 H        -2.252678         3.596268         1.309352
 H        -0.492085         4.657377        -0.835408
 H        -0.459009         5.249666         0.802838
 H         1.696716         2.311064         1.340440
 H         1.278524         3.634272         2.426684
 H        -0.686989         1.980271         2.630306
