19
Iteration:  2581
 O         0.279918         0.196818         0.284047
 C        -0.615224         1.241375         0.628452
 C        -2.057343         0.817786         0.533158
 C        -1.792632         2.113826        -0.129527
 C        -1.315386         3.324296         0.815125
 C        -0.356443         4.380681         0.147205
 O         0.994973         3.867288         0.282899
 C         0.984417         3.030580         1.489253
 C        -0.429348         2.352175         1.598014
 H         1.087577         0.635714         0.082644
 H        -2.208397        -0.018519        -0.173939
 H        -2.809386         0.725728         1.313183
 H        -1.854922         2.388787        -1.196207
 H        -2.184707         3.838392         1.270506
 H        -0.554586         4.708589        -0.938306
 H        -0.370544         5.318056         0.733664
 H         1.753172         2.222934         1.369582
 H         1.142608         3.692870         2.348466
 H        -0.805784         2.098553         2.631203
