19
Iteration:   631charge 0 multiplicity 1
 O         0.292136         0.174241         0.420981
 C        -0.621353         1.205840         0.495067
 C        -2.183537         1.002401         0.538511
 C        -1.636908         2.084439        -0.261428
 C        -1.357967         3.218282         0.731611
 C        -0.424362         4.429668         0.392361
 O         0.883593         3.966265         0.289544
 C         1.088104         3.025086         1.355881
 C        -0.215374         2.298334         1.541831
 H        -0.199526        -0.676372         0.823980
 H        -2.759889         0.257611        -0.021200
 H        -2.601041         1.128820         1.476549
 H        -1.813052         1.995577        -1.367455
 H        -2.261414         3.474633         1.289928
 H        -0.793195         4.860401        -0.598182
 H        -0.459187         5.249271         1.075929
 H         1.838711         2.393956         0.979784
 H         1.455484         3.553407         2.316173
 H        -0.385255         2.121384         2.616211
