19
Iteration:  3140
 O         0.346465         0.292719         0.289193
 C        -0.733204         1.165822         0.649651
 C        -2.134698         0.887622         0.327199
 C        -1.515254         2.143065        -0.251295
 C        -1.308770         3.277123         0.852931
 C        -0.344027         4.404079         0.270663
 O         0.937795         3.777964         0.322384
 C         0.923435         3.127967         1.520058
 C        -0.448097         2.301345         1.606199
 H         0.224097        -0.692943         0.602608
 H        -2.195252         0.095813        -0.427635
 H        -2.899924         0.848200         1.133591
 H        -1.421297         2.462965        -1.288558
 H        -2.123033         3.667483         1.418781
 H        -0.693230         4.692675        -0.807563
 H        -0.437480         5.383179         0.773723
 H         1.879219         2.548647         1.486150
 H         0.942795         3.850532         2.412849
 H        -0.483955         2.098387         2.694757
