19
Iteration:   287
 O         0.319294         0.247722         0.136842
 C        -0.713079         1.103964         0.701499
 C        -2.180136         0.893857         0.622482
 C        -1.610366         2.030438        -0.210018
 C        -1.333187         3.236751         0.766485
 C        -0.433658         4.485989         0.250457
 O         1.015182         3.943524         0.302415
 C         1.011983         3.058150         1.397715
 C        -0.332498         2.386538         1.650877
 H         0.180165        -0.589742         0.441804
 H        -2.518054         0.027747         0.069290
 H        -2.835511         1.171726         1.533538
 H        -1.553778         2.018003        -1.255091
 H        -2.336548         3.436117         1.290766
 H        -0.556682         4.723702        -0.832823
 H        -0.426339         5.457206         0.844848
 H         1.741791         2.202967         1.142073
 H         1.162702         3.637744         2.384979
 H        -0.501516         2.282420         2.682635
