19
Iteration:  2320charge 0 multiplicity 1
 O         0.374100         0.364571         0.275973
 C        -0.738650         1.186742         0.696229
 C        -2.103786         0.786296         0.602818
 C        -1.586941         2.148738        -0.248593
 C        -1.311017         3.338504         0.688214
 C        -0.408634         4.439448         0.347293
 O         0.949293         3.786911         0.265339
 C         0.997569         2.976999         1.403109
 C        -0.445790         2.361019         1.536903
 H         0.203443        -0.514380         0.468323
 H        -2.472001         0.030177        -0.125236
 H        -2.904351         0.943869         1.437834
 H        -1.455057         2.232985        -1.307742
 H        -2.147929         3.596516         1.167833
 H        -0.562231         5.081621        -0.575069
 H        -0.422049         5.046863         1.258284
 H         1.621046         2.173404         1.156002
 H         1.349886         3.431859         2.393611
 H        -0.603468         2.474974         2.637646
