19
Iteration:  4197
 O         0.295158         0.265634         0.253657
 C        -0.655444         1.102971         0.637473
 C        -2.131480         0.914380         0.578372
 C        -1.541268         2.005161        -0.307498
 C        -1.280975         3.285271         0.558612
 C        -0.246596         4.392225         0.040519
 O         0.838922         4.190137         0.877730
 C         0.997441         2.819020         1.398724
 C        -0.457813         2.363749         1.467961
 H         0.127784        -0.570848         0.682110
 H        -2.743297         0.073454         0.216219
 H        -2.765581         1.269827         1.535241
 H        -1.723424         2.080839        -1.369813
 H        -2.240329         3.789452         0.930101
 H        -0.016256         4.487566        -1.005482
 H        -0.737444         5.305843         0.234559
 H         1.645165         2.250886         0.819692
 H         1.495290         2.857282         2.379127
 H        -0.779327         2.353343         2.490282
