19
Iteration:  1512charge 0 multiplicity 1
 O         0.279582         0.381321         0.219593
 C        -0.690586         1.212386         0.761963
 C        -2.106811         0.832989         0.393065
 C        -1.516078         2.094297        -0.123322
 C        -1.313748         3.325726         0.814293
 C        -0.398886         4.418081         0.306547
 O         0.936923         3.782166         0.125777
 C         0.980109         2.951239         1.391659
 C        -0.435736         2.414411         1.793563
 H         0.045570        -0.577161         0.429203
 H        -2.214896         0.092884        -0.386972
 H        -2.799396         0.764803         1.113858
 H        -1.367294         2.123008        -1.206582
 H        -2.303218         3.641340         1.263369
 H        -0.601816         4.918159        -0.553810
 H        -0.261665         5.164732         1.087410
 H         1.658280         2.169158         1.059102
 H         1.319715         3.512784         2.186464
 H        -0.547778         2.361992         2.914330
