19
Iteration:   103charge 0 multiplicity 1
 O         0.146919         0.185647         0.250658
 C        -0.617869         1.173675         0.686186
 C        -2.092705         0.801409         0.516485
 C        -1.515886         2.000020        -0.171683
 C        -1.355102         3.251492         0.760662
 C        -0.421550         4.465144         0.349657
 O         0.893309         3.969665         0.187327
 C         1.123248         3.103724         1.394604
 C        -0.329576         2.439467         1.637271
 H        -0.078224        -0.654899         0.859882
 H        -2.266490         0.073436        -0.344119
 H        -2.829367         0.897354         1.365725
 H        -1.692271         2.185180        -1.262491
 H        -2.271363         3.571743         1.148408
 H        -0.701763         5.022334        -0.674675
 H        -0.454460         5.184551         1.203506
 H         1.914190         2.330239         1.019272
 H         1.387859         3.664364         2.332339
 H        -0.527190         2.196325         2.749660
