19
Iteration:  4777
 O         0.357923         0.288735         0.267669
 C        -0.724808         1.162863         0.590383
 C        -2.218584         0.837356         0.688365
 C        -1.643124         1.951853        -0.319237
 C        -1.354958         3.270190         0.578925
 C        -0.307960         4.360295         0.063636
 O         0.960849         4.189777         0.770733
 C         1.070452         2.942675         1.469059
 C        -0.345854         2.359796         1.504853
 H         0.070522        -0.389716        -0.327629
 H        -2.618471         0.018151         0.058759
 H        -2.937233         1.173122         1.307836
 H        -1.828193         1.994448        -1.421949
 H        -2.298891         3.602505         1.031194
 H        -0.194092         4.290001        -1.068331
 H        -0.665120         5.333692         0.228735
 H         1.786582         2.163428         1.084561
 H         1.366900         2.990207         2.622086
 H        -0.864228         2.334030         2.467852
