19
Iteration:  1883charge 0 multiplicity 1
 O         0.345087         0.362277         0.095780
 C        -0.668338         1.173405         0.693881
 C        -2.137961         1.063900         0.674207
 C        -1.508171         2.058086        -0.231863
 C        -1.355410         3.286002         0.763714
 C        -0.397166         4.305084         0.237806
 O         0.918314         3.748233         0.336148
 C         0.935183         3.011156         1.479782
 C        -0.365342         2.366869         1.600052
 H         0.094509        -0.428928         0.490695
 H        -2.487119         0.231451         0.012135
 H        -2.720226         1.346459         1.530557
 H        -1.392756         2.042406        -1.323729
 H        -2.315323         3.565528         1.101511
 H        -0.626975         4.481797        -0.789216
 H        -0.366127         5.367740         0.666707
 H         1.728476         2.329938         1.346261
 H         1.123449         3.729343         2.327276
 H        -0.670463         2.163708         2.602398
