19
Iteration:  4346
 O         0.199956         0.094671         0.298750
 C        -0.720714         1.124861         0.573085
 C        -2.202916         0.918389         0.548988
 C        -1.513374         2.019427        -0.419824
 C        -1.248758         3.239789         0.559991
 C        -0.320234         4.377937         0.088268
 O         0.848817         4.304888         1.025289
 C         1.047953         2.943334         1.301281
 C        -0.334236         2.347772         1.488425
 H         0.591496        -0.280787         1.170775
 H        -2.557055         0.074856         0.060870
 H        -2.811850         1.306195         1.299163
 H        -1.669631         2.069417        -1.499190
 H        -2.152758         3.643167         0.883373
 H        -0.039288         4.028637        -0.893484
 H        -0.649946         5.428790         0.272989
 H         1.584963         2.428076         0.478089
 H         1.533733         2.908855         2.274002
 H        -0.497260         2.125357         2.595182
