19
Iteration:   298charge 0 multiplicity 1
 O         0.270104         0.291374         0.166296
 C        -0.624768         1.198893         0.713233
 C        -2.166224         0.979777         0.641753
 C        -1.445279         2.022145        -0.228546
 C        -1.379703         3.252547         0.704725
 C        -0.471506         4.375285         0.312000
 O         0.888039         3.907001         0.301141
 C         1.054983         2.969696         1.384685
 C        -0.326410         2.374829         1.619184
 H         0.083331        -0.610761         0.415560
 H        -2.433256         0.058739         0.144219
 H        -2.918360         1.304512         1.444700
 H        -1.629938         2.036628        -1.253450
 H        -2.306097         3.750886         1.147097
 H        -0.636821         4.667373        -0.761080
 H        -0.666941         5.293978         0.966018
 H         1.915757         2.235459         1.162085
 H         1.493688         3.492371         2.325069
 H        -0.511086         2.293845         2.651355
