19
Iteration:  4887
 O         0.289144         0.297725         0.233140
 C        -0.645434         1.187376         0.659280
 C        -2.121872         0.921147         0.578359
 C        -1.475139         1.988101        -0.360564
 C        -1.358928         3.227243         0.575729
 C        -0.434304         4.442644         0.291275
 O         1.028811         3.983899         0.474895
 C         0.930195         2.943250         1.511815
 C        -0.479059         2.351151         1.545868
 H         0.755333        -0.216222         1.003348
 H        -2.451636         0.040102         0.090953
 H        -2.636728         1.265465         1.389570
 H        -1.906553         1.916587        -1.360715
 H        -2.389701         3.644447         0.713921
 H        -0.446545         4.960140        -0.723548
 H        -0.550837         5.109620         1.109885
 H         1.762952         2.296470         1.290003
 H         1.308192         3.321033         2.497084
 H        -0.902255         2.201634         2.526255
