19
Iteration:  3350charge 0 multiplicity 1
 O         0.236786         0.206970         0.187358
 C        -0.622789         1.270495         0.680497
 C        -2.073748         0.882822         0.413798
 C        -1.499858         2.110277        -0.241963
 C        -1.335943         3.215611         0.836542
 C        -0.380139         4.344131         0.148039
 O         0.942864         3.777097         0.322629
 C         0.893091         3.138100         1.586681
 C        -0.436255         2.360631         1.725590
 H         1.066228         0.634528         0.199216
 H        -2.293374         0.029397        -0.229696
 H        -2.955598         1.152908         1.025698
 H        -1.498071         2.325078        -1.315231
 H        -2.181864         3.631524         1.318496
 H        -0.480647         4.649841        -0.963547
 H        -0.586847         5.254718         0.734369
 H         1.811837         2.405089         1.625106
 H         0.937516         3.965089         2.369058
 H        -0.617593         2.102392         2.777061
