19
Iteration:   581charge 0 multiplicity 1
 O         0.279164         0.275326         0.265889
 C        -0.730775         1.196813         0.700619
 C        -2.185206         0.941855         0.515209
 C        -1.442108         2.103241        -0.223916
 C        -1.328532         3.229729         0.847638
 C        -0.489648         4.412723         0.290153
 O         0.874663         3.832938         0.213395
 C         1.132064         3.050448         1.373950
 C        -0.341601         2.363480         1.647893
 H         0.015215        -0.682902         0.188007
 H        -2.421601        -0.091030         0.156614
 H        -3.008848         1.342832         1.203746
 H        -1.133999         2.179121        -1.300029
 H        -2.286386         3.510716         1.325395
 H        -0.901459         4.713980        -0.646910
 H        -0.457098         5.413329         0.898622
 H         2.016749         2.295350         1.155188
 H         1.519077         3.680670         2.291512
 H        -0.562311         2.100433         2.727609
