19
Iteration:  1258
 O         0.219019         0.226089         0.192674
 C        -0.679140         1.175619         0.639174
 C        -2.091115         0.821253         0.613044
 C        -1.662810         2.034718        -0.199960
 C        -1.381335         3.257927         0.731494
 C        -0.351031         4.463843         0.271873
 O         1.011250         3.940219         0.318147
 C         1.109014         3.074948         1.465649
 C        -0.402045         2.378445         1.553284
 H         0.074824        -0.615302         0.806324
 H        -2.386699         0.025794        -0.104622
 H        -2.814623         0.897168         1.450830
 H        -1.671192         1.957518        -1.288428
 H        -2.243309         3.834345         1.279463
 H        -0.531220         4.936782        -0.758092
 H        -0.495472         5.395416         0.954816
 H         1.842459         2.330896         1.123102
 H         1.237473         3.709093         2.341126
 H        -0.580555         2.160169         2.612029
