19
Iteration:  4198charge 0 multiplicity 1
 O         0.294244         0.263267         0.252790
 C        -0.647871         1.106582         0.640307
 C        -2.138385         0.909673         0.579650
 C        -1.535077         1.996804        -0.307073
 C        -1.283448         3.298680         0.554280
 C        -0.240840         4.378847         0.041190
 O         0.836768         4.194991         0.876430
 C         0.995841         2.819300         1.400000
 C        -0.459339         2.363389         1.467067
 H         0.095630        -0.544644         0.632876
 H        -2.774374         0.074224         0.223797
 H        -2.759434         1.294152         1.518449
 H        -1.711620         2.064871        -1.365840
 H        -2.226000         3.775863         0.924307
 H        -0.058330         4.532389        -0.990967
 H        -0.743570         5.332189         0.272933
 H         1.666763         2.240805         0.853350
 H         1.474556         2.859551         2.345540
 H        -0.735953         2.342004         2.516999
