19
Iteration:   965
 O         0.316466         0.312699         0.242300
 C        -0.674281         1.231619         0.673105
 C        -2.099797         0.987816         0.535527
 C        -1.395308         2.087983        -0.235515
 C        -1.369467         3.295541         0.798314
 C        -0.492194         4.390971         0.338655
 O         0.812696         3.778799         0.268584
 C         1.046662         2.970630         1.309947
 C        -0.382512         2.358066         1.672010
 H         0.091287        -0.582654         0.620597
 H        -2.447360         0.076266         0.071293
 H        -2.831878         1.346878         1.368979
 H        -1.145235         2.225180        -1.292264
 H        -2.303653         3.672448         1.125589
 H        -0.701547         4.769186        -0.650027
 H        -0.489999         5.298962         0.971288
 H         1.806703         2.098405         0.959507
 H         1.428743         3.413833         2.261123
 H        -0.461550         2.120098         2.771115
