19
Iteration:  4323charge 0 multiplicity 1
 O         0.262623         0.159002         0.263718
 C        -0.703851         1.136142         0.635602
 C        -2.203820         0.929566         0.622502
 C        -1.507066         1.967317        -0.325220
 C        -1.242489         3.200522         0.426148
 C        -0.207419         4.433757         0.139516
 O         0.847402         4.305323         1.053728
 C         0.976620         2.869236         1.232096
 C        -0.446553         2.402410         1.464056
 H         0.162223        -0.589074         0.790762
 H        -2.416965         0.034765         0.076657
 H        -2.778276         1.115227         1.510794
 H        -1.361994         1.717499        -1.372824
 H        -2.148550         3.644870         0.771008
 H         0.174697         4.340509        -0.867533
 H        -0.745187         5.387082         0.493896
 H         1.195831         2.466176         0.222185
 H         1.682856         2.599540         1.954073
 H        -0.900470         2.375917         2.518144
