19
Iteration:  2354charge 0 multiplicity 1
 O         0.353559         0.361038         0.305421
 C        -0.682846         1.171201         0.633513
 C        -2.155274         0.882655         0.562141
 C        -1.553806         2.191237        -0.223724
 C        -1.326443         3.244168         0.749851
 C        -0.454715         4.301523         0.221808
 O         0.964027         3.851999         0.289624
 C         0.999160         3.020509         1.443521
 C        -0.380490         2.321341         1.686196
 H        -0.058256        -0.264487        -0.322611
 H        -2.414248         0.101103        -0.137423
 H        -3.003375         1.106793         1.372814
 H        -1.589499         2.313742        -1.307937
 H        -2.160750         3.681190         1.189491
 H        -0.530085         4.673149        -0.852524
 H        -0.552810         5.190408         0.849691
 H         1.773596         2.250329         1.147308
 H         1.406967         3.517240         2.367309
 H        -0.682475         2.203874         2.788425
