19
Iteration:  4715
 O         0.209363         0.190669         0.395568
 C        -0.718891         1.170669         0.605771
 C        -2.189736         0.858255         0.498031
 C        -1.621741         2.059470        -0.234515
 C        -1.255793         3.146147         0.692342
 C        -0.271840         4.171363        -0.052467
 O         0.806081         4.341307         0.941957
 C         1.112131         2.991720         1.281034
 C        -0.306668         2.337691         1.526100
 H         0.073496        -0.017679        -0.513080
 H        -2.511970         0.115222        -0.335148
 H        -3.005030         1.094550         1.273344
 H        -1.699114         2.338551        -1.320066
 H        -2.024346         3.780444         1.105525
 H         0.220600         3.850298        -0.964425
 H        -0.701452         5.212307        -0.104982
 H         1.637081         2.652216         0.445188
 H         1.696953         3.070604         2.104599
 H        -0.298318         2.348664         2.638528
