19
Iteration:  1827charge 0 multiplicity 1
 O         0.289862         0.206034         0.206472
 C        -0.740275         1.191210         0.587178
 C        -2.155903         0.868898         0.587445
 C        -1.714630         2.039361        -0.229595
 C        -1.315424         3.339243         0.782430
 C        -0.406583         4.424985         0.171558
 O         1.031933         3.941097         0.396522
 C         1.050672         3.018750         1.493408
 C        -0.309223         2.319024         1.531685
 H         0.380137        -0.267206         0.990913
 H        -2.434965        -0.034455        -0.047102
 H        -2.893169         1.078886         1.368769
 H        -1.884410         2.297233        -1.299004
 H        -2.104687         3.665337         1.395525
 H        -0.534998         4.697260        -0.862080
 H        -0.459042         5.316626         0.853908
 H         1.900827         2.447354         1.396523
 H         1.245133         3.621577         2.440105
 H        -0.652254         2.176616         2.508651
