19
Iteration:   780
 O         0.331085         0.481359         0.064002
 C        -0.726642         1.192778         0.782894
 C        -2.206218         0.777344         0.523938
 C        -1.675329         2.074080        -0.084489
 C        -1.307745         3.247156         0.808228
 C        -0.348606         4.299911         0.127707
 O         0.981233         3.792011         0.284342
 C         1.022471         3.044186         1.485383
 C        -0.382434         2.423660         1.684985
 H         0.439046        -0.288560         0.526728
 H        -2.302576        -0.152234        -0.181999
 H        -3.071669         1.008621         1.238665
 H        -1.514645         2.199413        -1.165451
 H        -2.167319         3.823717         1.332451
 H        -0.366365         4.591550        -0.913437
 H        -0.442953         5.190274         0.732717
 H         1.824829         2.212127         1.269024
 H         1.331513         3.661211         2.359181
 H        -0.621954         2.445593         2.769979
