19
Iteration:  4963
 O         0.411509         0.361322         0.421387
 C        -0.702863         1.250221         0.707477
 C        -2.123387         0.886244         0.270746
 C        -1.388158         2.178116        -0.279313
 C        -1.353436         3.264784         0.796170
 C        -0.436939         4.368413         0.304314
 O         0.849794         3.735276         0.201705
 C         0.943372         2.974408         1.530618
 C        -0.454052         2.350993         1.746620
 H         0.106148        -0.200846        -0.259229
 H        -2.187430         0.032275        -0.378219
 H        -2.885382         0.875154         1.004844
 H        -1.438729         2.335726        -1.347542
 H        -2.367147         3.597746         1.258080
 H        -0.535411         4.814343        -0.764814
 H        -0.400024         5.396150         0.835041
 H         1.659324         2.193230         1.337202
 H         1.373441         3.732494         2.167145
 H        -0.706463         2.170601         2.757214
