19
Iteration:  4631charge 0 multiplicity 1
 O         0.220019         0.125962         0.313615
 C        -0.698571         1.129285         0.619449
 C        -2.235059         0.895706         0.538958
 C        -1.525187         1.986341        -0.349181
 C        -1.229697         3.255079         0.595419
 C        -0.308797         4.344893         0.102119
 O         0.848789         4.355284         0.956340
 C         1.091808         2.964155         1.270254
 C        -0.359806         2.361685         1.455261
 H         0.210885        -0.539392         1.081953
 H        -2.422704        -0.010197        -0.004818
 H        -2.907582         1.017020         1.411988
 H        -1.839517         1.891609        -1.404177
 H        -2.166031         3.583364         1.172551
 H        -0.116673         3.938845        -0.920606
 H        -0.863040         5.334780         0.137667
 H         1.579496         2.437162         0.355507
 H         1.837492         2.725667         2.078981
 H        -0.619328         2.466603         2.494174
