19
Iteration:   452charge 0 multiplicity 1
 O         0.276382         0.272176         0.090178
 C        -0.643919         1.275282         0.591983
 C        -2.093680         0.821610         0.622555
 C        -1.722563         2.086613        -0.079285
 C        -1.352252         3.248396         0.828783
 C        -0.350110         4.321423         0.163438
 O         1.009130         3.871106         0.334792
 C         1.002479         3.128418         1.484757
 C        -0.359826         2.402602         1.581108
 H         0.145223        -0.499331         0.764124
 H        -2.256373        -0.028238        -0.140824
 H        -2.839242         0.821469         1.483155
 H        -1.794007         2.303023        -1.177251
 H        -2.190120         3.814095         1.463347
 H        -0.477983         4.277203        -0.942788
 H        -0.532387         5.316141         0.580953
 H         1.736101         2.283987         1.317296
 H         1.188770         3.701596         2.360124
 H        -0.693423         2.082853         2.655749
