19
Iteration:  3455
 O         0.252698         0.190634         0.353653
 C        -0.657709         1.153638         0.689056
 C        -2.169026         0.840207         0.383485
 C        -1.608506         2.119515        -0.198054
 C        -1.331766         3.288060         0.727913
 C        -0.377815         4.306677         0.003502
 O         0.944143         4.114865         0.618904
 C         0.998506         2.931624         1.417115
 C        -0.363831         2.330271         1.604217
 H         0.991809         0.780838         0.123675
 H        -2.427782         0.107500        -0.358430
 H        -2.841084         0.979424         1.244764
 H        -1.641872         2.375354        -1.240426
 H        -2.184642         3.764710         1.321296
 H        -0.349382         4.170157        -1.061151
 H        -0.667106         5.400774         0.313711
 H         1.730722         2.196696         0.986380
 H         1.640835         3.141954         2.423297
 H        -0.673278         2.326294         2.664460
