19
Iteration:  1163charge 0 multiplicity 1
 O         0.383023         0.302697         0.283407
 C        -0.666755         1.219188         0.643991
 C        -2.221246         0.921785         0.564957
 C        -1.546931         2.080881        -0.227047
 C        -1.353636         3.273663         0.770921
 C        -0.375139         4.422225         0.342244
 O         0.914032         3.835354         0.261886
 C         0.988304         2.987612         1.335410
 C        -0.375365         2.342881         1.585265
 H         0.207350        -0.497423         0.784939
 H        -2.453645         0.076254        -0.101840
 H        -2.909971         1.159842         1.353563
 H        -1.611531         2.182781        -1.341926
 H        -2.275658         3.568983         1.241894
 H        -0.640193         4.973211        -0.535858
 H        -0.461351         5.044464         1.217866
 H         1.805088         2.253313         1.026795
 H         1.326731         3.617701         2.196244
 H        -0.515314         2.206967         2.728541
