19
Iteration:   446charge 0 multiplicity 1
 O         0.264762         0.282005         0.117117
 C        -0.645866         1.256775         0.620014
 C        -2.103229         0.815645         0.616270
 C        -1.775180         2.081466        -0.122064
 C        -1.374342         3.249318         0.772543
 C        -0.328301         4.329167         0.201627
 O         0.997153         3.896001         0.297218
 C         1.079995         3.128345         1.528997
 C        -0.369549         2.370790         1.590626
 H         0.154585        -0.564057         0.699185
 H        -2.074665        -0.065649         0.062120
 H        -2.919778         0.794898         1.294154
 H        -2.043732         2.242204        -1.152856
 H        -2.014146         3.608705         1.473306
 H        -0.471602         4.497415        -0.889409
 H        -0.432177         5.359132         0.640123
 H         1.817391         2.405563         1.289520
 H         1.348234         3.840777         2.442878
 H        -0.743466         2.032252         2.498823
