19
Iteration:  2155charge 0 multiplicity 1
 O         0.249501         0.370801         0.122962
 C        -0.713180         1.239112         0.738937
 C        -2.082580         0.836883         0.500425
 C        -1.514688         2.109598        -0.155476
 C        -1.303463         3.247330         0.792494
 C        -0.402039         4.359504         0.232291
 O         0.910307         3.744370         0.292373
 C         1.007817         3.062120         1.435197
 C        -0.386606         2.425463         1.720985
 H         0.204765        -0.634108         0.460069
 H        -2.178871         0.104686        -0.359232
 H        -2.953295         0.903094         1.186590
 H        -1.339589         2.099256        -1.287447
 H        -2.074270         3.859942         1.161612
 H        -0.676492         4.501613        -0.815840
 H        -0.523714         5.285691         0.854959
 H         1.665703         2.302723         1.418258
 H         1.317549         3.734108         2.263479
 H        -0.650964         2.413659         2.782213
