19
Iteration:  2210
 O         0.403173         0.292240         0.249716
 C        -0.643702         1.229530         0.540484
 C        -2.121340         0.987390         0.643633
 C        -1.618096         2.097662        -0.234080
 C        -1.416953         3.282709         0.743324
 C        -0.412504         4.393531         0.249700
 O         0.979195         3.851191         0.329904
 C         0.982315         2.964483         1.493416
 C        -0.397007         2.301717         1.514536
 H         0.209496        -0.663543         0.570462
 H        -2.478827        -0.049308         0.317337
 H        -2.536667         1.367920         1.594824
 H        -1.827194         2.248501        -1.313186
 H        -2.249975         3.709308         1.238722
 H        -0.626115         4.767130        -0.766559
 H        -0.582509         5.239852         0.879415
 H         1.619555         2.182873         1.298588
 H         1.213870         3.495217         2.421447
 H        -0.712505         2.098027         2.555601
