19
Iteration:    80charge 0 multiplicity 1
 O         0.346243         0.072252         0.325056
 C        -0.638777         1.120975         0.613129
 C        -2.169480         1.037797         0.606397
 C        -1.576426         2.116818        -0.240575
 C        -1.289446         3.245610         0.776915
 C        -0.453852         4.483991         0.317822
 O         0.877251         4.006901         0.316174
 C         0.959820         3.063343         1.284314
 C        -0.301366         2.286421         1.518367
 H         0.299039        -0.580961         0.953582
 H        -2.423351         0.102342         0.044224
 H        -2.641642         1.242794         1.612131
 H        -1.706139         2.169656        -1.359758
 H        -2.121559         3.429463         1.374343
 H        -0.706614         4.748941        -0.797017
 H        -0.513635         5.373925         0.995316
 H         1.684944         2.272987         0.899521
 H         1.185411         3.393814         2.331154
 H        -0.385364         2.096360         2.654666
