19
Iteration:  1934
 O         0.341282         0.374112         0.274158
 C        -0.683692         1.211735         0.699073
 C        -2.102408         0.855855         0.436371
 C        -1.607896         2.189609        -0.102317
 C        -1.362904         3.364584         0.795695
 C        -0.350048         4.332998         0.211459
 O         0.936744         3.787927         0.229545
 C         0.967446         2.905718         1.383380
 C        -0.421067         2.350911         1.678401
 H         0.471836        -0.280346         0.984710
 H        -2.242784         0.063257        -0.377351
 H        -2.790677         0.825794         1.284590
 H        -1.753531         2.448673        -1.155145
 H        -2.281419         3.767739         1.283301
 H        -0.562776         4.726856        -0.802590
 H        -0.367126         5.235466         0.811864
 H         1.775294         2.160732         1.268005
 H         1.231518         3.650821         2.201270
 H        -0.589980         2.045136         2.703140
