19
Iteration:  4337charge 0 multiplicity 1
 O         0.211373         0.124948         0.272347
 C        -0.668963         1.126030         0.621611
 C        -2.151774         0.954136         0.535174
 C        -1.543740         1.914546        -0.398387
 C        -1.290169         3.273719         0.517318
 C        -0.263507         4.383045         0.103094
 O         0.878398         4.325865         1.050780
 C         0.995164         2.904694         1.274576
 C        -0.398414         2.321983         1.507303
 H         0.442799        -0.359293         1.162253
 H        -2.537144         0.059912         0.150661
 H        -2.763787         1.432220         1.196333
 H        -1.883096         1.939001        -1.426803
 H        -2.152400         3.654905         0.995818
 H         0.060993         4.478745        -0.914860
 H        -0.735064         5.332833         0.167730
 H         1.497237         2.390096         0.418056
 H         1.822967         2.803409         2.080504
 H        -0.723838         2.299636         2.582563
