19
Iteration:  3118
 O         0.300233         0.208574         0.329460
 C        -0.577959         1.312195         0.556214
 C        -2.011319         0.866621         0.368810
 C        -1.598774         2.219771        -0.208707
 C        -1.376684         3.272394         0.793189
 C        -0.419320         4.338895         0.214095
 O         0.915337         3.770681         0.305979
 C         0.979561         3.028757         1.625515
 C        -0.394205         2.371763         1.683092
 H        -0.158660        -0.478021        -0.089000
 H        -2.122051         0.158829        -0.462642
 H        -2.901996         0.821218         1.026247
 H        -1.723705         2.596764        -1.224614
 H        -2.255328         3.800563         1.088594
 H        -0.682712         4.702188        -0.874732
 H        -0.593619         5.241562         0.836036
 H         1.875221         2.360608         1.585752
 H         1.133223         3.893926         2.325797
 H        -0.617474         2.076780         2.731642
