19
Iteration:  2288charge 0 multiplicity 1
 O         0.347130         0.224143         0.261422
 C        -0.655525         1.258918         0.623018
 C        -2.126147         0.976015         0.519886
 C        -1.563212         2.172233        -0.298079
 C        -1.377474         3.269969         0.829890
 C        -0.482743         4.409915         0.283293
 O         0.911816         3.767359         0.281049
 C         1.011109         3.005690         1.440193
 C        -0.338420         2.336082         1.580352
 H         0.530466        -0.333181         1.114125
 H        -2.397171         0.059518        -0.069754
 H        -2.790109         1.384975         1.367126
 H        -1.404693         2.348039        -1.331122
 H        -2.251797         3.491969         1.423232
 H        -0.859169         4.624420        -0.756265
 H        -0.474390         5.269807         0.885332
 H         1.776750         2.257823         1.367630
 H         1.238894         3.584460         2.374170
 H        -0.511083         2.072611         2.683666
