19
Iteration:   495
 O         0.359613         0.469209         0.023998
 C        -0.634847         1.244082         0.637137
 C        -2.239220         0.960330         0.673442
 C        -1.606443         2.015847        -0.162346
 C        -1.328103         3.224910         0.764563
 C        -0.404096         4.239534         0.179399
 O         0.954174         3.758608         0.316721
 C         0.988200         3.030843         1.510648
 C        -0.361319         2.436532         1.651151
 H         0.462076        -0.341767         0.485991
 H        -2.676032        -0.014957         0.306937
 H        -2.837214         1.265461         1.587657
 H        -1.586072         1.924656        -1.284009
 H        -2.274176         3.647860         1.323952
 H        -0.590147         4.491243        -0.854846
 H        -0.403247         5.143143         0.780570
 H         1.795473         2.219568         1.470527
 H         1.138959         3.715073         2.326354
 H        -0.405923         2.256760         2.835349
