19
Iteration:   420
 O         0.331494         0.307193         0.189677
 C        -0.685439         1.187143         0.607496
 C        -2.175895         0.880422         0.674936
 C        -1.600009         2.069920        -0.131885
 C        -1.314831         3.242320         0.689217
 C        -0.389191         4.380179         0.321881
 O         0.968696         3.881938         0.289705
 C         0.968045         3.074314         1.381046
 C        -0.331693         2.345204         1.542321
 H         0.050424        -0.564697         0.486497
 H        -2.690137         0.084341         0.042436
 H        -2.747951         1.070847         1.626181
 H        -1.596669         2.080058        -1.249278
 H        -2.196759         3.623747         1.300325
 H        -0.552336         4.853414        -0.693881
 H        -0.458125         5.232204         1.039232
 H         1.837561         2.364152         1.320318
 H         1.054536         3.725682         2.337279
 H        -0.538026         2.124570         2.581922
