19
Iteration:  2972
 O         0.282652         0.275968         0.149781
 C        -0.648858         1.193111         0.629732
 C        -2.084557         0.917412         0.511999
 C        -1.537995         2.095578        -0.233099
 C        -1.339874         3.281667         0.717577
 C        -0.387928         4.386420         0.282267
 O         0.935138         3.812543         0.312004
 C         0.921809         3.037015         1.567500
 C        -0.404632         2.420008         1.608844
 H         0.424353        -0.301515         0.967428
 H        -2.163712        -0.038251        -0.012654
 H        -2.833532         0.926293         1.299466
 H        -1.543164         2.002093        -1.353752
 H        -2.233106         3.607641         1.175886
 H        -0.413422         4.844382        -0.674153
 H        -0.454362         5.242009         0.973267
 H         1.719272         2.139076         1.589828
 H         1.104135         3.686652         2.438225
 H        -0.695786         2.275327         2.669072
