19
Iteration:    62charge 0 multiplicity 1
 O         0.315688         0.223543         0.356271
 C        -0.672364         1.174467         0.524098
 C        -2.197808         0.995478         0.666198
 C        -1.497460         2.101529        -0.256245
 C        -1.318492         3.230530         0.716891
 C        -0.562046         4.397006         0.279401
 O         0.859271         4.055696         0.338506
 C         1.181543         2.911962         1.350060
 C        -0.273090         2.244357         1.537832
 H         0.175759        -0.384326         1.007866
 H        -2.794946         0.251034         0.085152
 H        -2.644145         1.573424         1.461085
 H        -1.806976         2.109106        -1.313116
 H        -2.271480         3.582507         1.244666
 H        -0.770362         4.570082        -0.791807
 H        -0.741229         5.174632         1.034215
 H         1.940195         2.198731         0.931383
 H         1.384470         3.460727         2.292838
 H        -0.576609         2.107761         2.598644
