19
Iteration:   296charge 0 multiplicity 1
 O         0.278328         0.282090         0.159292
 C        -0.634250         1.177843         0.715933
 C        -2.178360         0.969279         0.646479
 C        -1.464513         2.020831        -0.232228
 C        -1.384689         3.241926         0.713210
 C        -0.474567         4.402946         0.306654
 O         0.913971         3.911837         0.299313
 C         1.048036         2.978044         1.383948
 C        -0.318009         2.382666         1.624426
 H         0.112557        -0.575459         0.387531
 H        -2.445903         0.050175         0.143198
 H        -2.896461         1.267310         1.410394
 H        -1.649253         2.032736        -1.314233
 H        -2.321958         3.753499         1.167567
 H        -0.572511         4.628060        -0.723938
 H        -0.624068         5.357293         0.936283
 H         1.866747         2.250558         1.188116
 H         1.433648         3.500942         2.341642
 H        -0.489327         2.324192         2.709483
