19
Iteration:  4688
 O         0.211903         0.031954         0.349485
 C        -0.685479         1.121206         0.582325
 C        -2.196415         0.966768         0.567766
 C        -1.547719         2.010816        -0.287404
 C        -1.314783         3.222195         0.631838
 C        -0.279162         4.271016         0.026477
 O         0.809804         4.400300         0.964618
 C         1.071774         3.015718         1.283764
 C        -0.317802         2.286860         1.487862
 H        -0.122017        -0.382016        -0.413325
 H        -2.539707         0.089341         0.098794
 H        -2.658490         1.190861         1.503043
 H        -1.574275         2.020380        -1.352238
 H        -2.165074         3.792252         1.033683
 H         0.104995         4.042821        -1.002262
 H        -0.641484         5.287696        -0.181601
 H         1.729852         2.672254         0.433861
 H         1.704140         3.127814         2.273647
 H        -0.346316         2.288891         2.589688
