19
Iteration:  1866
 O         0.277170         0.289980         0.087427
 C        -0.624069         1.159070         0.646936
 C        -2.191779         0.948148         0.596575
 C        -1.491786         2.128086        -0.165478
 C        -1.308192         3.258836         0.767760
 C        -0.417061         4.369528         0.111290
 O         0.933150         3.868223         0.322519
 C         1.003594         3.010972         1.553623
 C        -0.399086         2.358027         1.702288
 H         0.273497        -0.596370         0.475887
 H        -2.594500         0.055654         0.173154
 H        -2.849980         1.249370         1.451281
 H        -1.576822         2.126334        -1.243430
 H        -2.131050         3.841558         1.312629
 H        -0.487022         4.506829        -1.016544
 H        -0.660805         5.327333         0.558009
 H         1.905885         2.261497         1.293992
 H         1.197095         3.446834         2.547421
 H        -0.686403         2.232697         2.815772
