19
Iteration:  4562
 O         0.216450         0.097092         0.336642
 C        -0.718583         1.142707         0.598937
 C        -2.181389         0.900171         0.548655
 C        -1.577545         1.983666        -0.347272
 C        -1.250430         3.266415         0.581225
 C        -0.344336         4.437546         0.104364
 O         0.893555         4.265043         0.832220
 C         1.044407         2.920248         1.380264
 C        -0.385317         2.338467         1.490775
 H         1.061169         0.460020         0.577505
 H        -2.376363        -0.070709        -0.017796
 H        -2.840505         0.911245         1.472334
 H        -1.885068         1.893277        -1.382789
 H        -2.148861         3.795198         1.091164
 H        -0.070391         4.365540        -1.026193
 H        -0.644385         5.444570         0.402372
 H         1.720691         2.163641         0.741543
 H         1.691865         3.030190         2.197949
 H        -0.706867         2.122619         2.466245
