19
Iteration:  2883
 O         0.181571         0.164635         0.208604
 C        -0.664963         1.192393         0.657669
 C        -2.039278         0.902896         0.555049
 C        -1.470430         2.161115        -0.239301
 C        -1.350093         3.292741         0.752125
 C        -0.385408         4.434599         0.243690
 O         0.895088         3.793129         0.307556
 C         0.958564         3.093661         1.516074
 C        -0.404927         2.321240         1.606122
 H         1.129920         0.270649         0.349712
 H        -2.361493         0.025007         0.063750
 H        -2.744566         1.114537         1.319551
 H        -1.263557         2.089161        -1.303675
 H        -2.223663         3.662700         1.223866
 H        -0.611609         4.733820        -0.720771
 H        -0.588059         5.320059         0.849565
 H         1.967619         2.517861         1.433328
 H         0.938643         3.831396         2.248870
 H        -0.587781         2.090375         2.666567
