19
Iteration:  2880
 O         0.179928         0.166137         0.189245
 C        -0.654800         1.214177         0.645957
 C        -2.062069         0.935118         0.567117
 C        -1.429437         2.125709        -0.244791
 C        -1.367722         3.272180         0.761100
 C        -0.372869         4.424267         0.235735
 O         0.881897         3.793852         0.272841
 C         0.962280         3.106791         1.543613
 C        -0.408616         2.323452         1.619959
 H         1.192668         0.274494         0.458269
 H        -2.358568        -0.032539         0.097114
 H        -2.829449         1.129714         1.358677
 H        -1.315124         2.180689        -1.322128
 H        -2.252006         3.586868         1.235108
 H        -0.636331         4.851068        -0.754482
 H        -0.491942         5.287111         0.914055
 H         1.961298         2.457086         1.484176
 H         0.932428         3.837375         2.389636
 H        -0.589749         2.012037         2.684688
