19
Iteration:  4749charge 0 multiplicity 1
 O         0.334371         0.275698         0.301884
 C        -0.679366         1.180787         0.576173
 C        -2.133270         0.868581         0.662910
 C        -1.590730         2.003231        -0.269984
 C        -1.288600         3.232192         0.628007
 C        -0.257074         4.300282        -0.040652
 O         0.892356         4.220645         0.855437
 C         0.944842         2.874044         1.336186
 C        -0.431303         2.367043         1.561035
 H         0.140678        -0.098599        -0.515814
 H        -2.544251         0.034980         0.026351
 H        -2.758359         1.364565         1.550628
 H        -1.793786         2.109704        -1.344397
 H        -2.203778         3.680851         1.091405
 H        -0.007140         4.220053        -1.130152
 H        -0.724734         5.302490         0.275102
 H         1.535758         2.181392         0.780813
 H         1.444455         2.793196         2.237629
 H        -0.874521         2.339663         2.581332
