19
Iteration:   404
 O         0.371048         0.246625         0.180703
 C        -0.638715         1.144943         0.669791
 C        -2.121647         1.039711         0.658666
 C        -1.468239         2.047334        -0.270955
 C        -1.342348         3.297932         0.840956
 C        -0.422765         4.473280         0.278185
 O         0.866211         3.890254         0.197933
 C         0.982717         2.930812         1.437710
 C        -0.421200         2.311426         1.631327
 H         0.198709        -0.611539         0.369951
 H        -2.427755         0.127722         0.233715
 H        -2.749457         1.384976         1.457094
 H        -1.738275         2.077399        -1.296291
 H        -2.299388         3.676753         1.244280
 H        -0.764077         4.829607        -0.657679
 H        -0.450989         5.300904         0.986781
 H         1.714766         2.215108         1.111769
 H         1.250444         3.482501         2.273558
 H        -0.726228         2.154590         2.752494
