19
Iteration:  3463charge 0 multiplicity 1
 O         0.233565         0.133867         0.360578
 C        -0.680485         1.213955         0.612856
 C        -2.173745         0.859590         0.361814
 C        -1.577885         2.101452        -0.215489
 C        -1.298403         3.279942         0.761077
 C        -0.377979         4.329897         0.047445
 O         0.883317         4.127675         0.604464
 C         1.044238         2.931549         1.436411
 C        -0.369423         2.389679         1.643562
 H         1.208039         0.387234         0.109529
 H        -2.278450        -0.069210        -0.191160
 H        -2.745927         0.991295         1.338072
 H        -1.849067         2.285687        -1.248300
 H        -2.071243         3.756825         1.248176
 H        -0.229324         4.142969        -1.044180
 H        -0.699098         5.432441         0.025908
 H         1.685749         2.112940         0.866594
 H         1.511173         3.180654         2.498920
 H        -0.595596         2.099194         2.689735
