19
Iteration:  2980
 O         0.238414         0.279835         0.168513
 C        -0.653548         1.235489         0.649318
 C        -2.090224         0.892604         0.514604
 C        -1.537711         2.079738        -0.236950
 C        -1.284419         3.249379         0.718044
 C        -0.396178         4.400689         0.274277
 O         0.942213         3.779904         0.319248
 C         0.940603         3.103914         1.552821
 C        -0.401690         2.342501         1.595786
 H         0.700890        -0.239634         0.943142
 H        -2.103454         0.025081        -0.153569
 H        -2.992007         1.033952         1.151572
 H        -1.635367         2.284373        -1.323846
 H        -2.118237         3.579651         1.271138
 H        -0.511782         4.881332        -0.703224
 H        -0.456850         5.189725         1.077562
 H         1.886133         2.353565         1.577666
 H         0.906500         3.810635         2.431902
 H        -0.876721         2.242260         2.589583
