19
Iteration:  2737charge 0 multiplicity 1
 O         0.126670         0.112368         0.229852
 C        -0.600839         1.204923         0.652966
 C        -2.050983         0.881760         0.548570
 C        -1.573519         2.072321        -0.198637
 C        -1.276542         3.279408         0.700636
 C        -0.399015         4.404459         0.295724
 O         0.911638         3.836292         0.235187
 C         0.931375         3.160954         1.521530
 C        -0.369262         2.388833         1.592911
 H         1.083288         0.537770         0.334560
 H        -2.213300        -0.118095         0.124679
 H        -2.524585         0.972247         1.584197
 H        -1.669897         2.204187        -1.290193
 H        -2.082230         3.693511         1.212740
 H        -0.609699         4.792855        -0.735227
 H        -0.356927         5.270991         1.007402
 H         2.005767         2.502715         1.472058
 H         1.051255         3.929812         2.330040
 H        -0.630991         2.085435         2.636574
