19
Iteration:  2308
 O         0.357788         0.328983         0.292478
 C        -0.648608         1.217655         0.580309
 C        -2.115081         0.905515         0.557844
 C        -1.550726         2.117850        -0.218190
 C        -1.358121         3.279123         0.715956
 C        -0.342849         4.401024         0.339450
 O         0.889395         3.829774         0.247861
 C         0.982575         2.936314         1.397370
 C        -0.441247         2.376647         1.636942
 H         0.235865        -0.474566         0.935725
 H        -2.357955         0.077359        -0.175185
 H        -2.704888         1.004207         1.482662
 H        -1.911599         2.170148        -1.225375
 H        -2.165221         3.767110         1.079194
 H        -0.621344         4.989478        -0.561092
 H        -0.383738         5.129365         1.191711
 H         1.691656         2.211013         1.169806
 H         1.344670         3.592243         2.251916
 H        -0.778389         1.959185         2.571712
