19
Iteration:  3000charge 0 multiplicity 1
 O         0.263568         0.217984         0.212454
 C        -0.719565         1.161795         0.570871
 C        -2.192585         0.954391         0.395260
 C        -1.523493         2.127463        -0.247972
 C        -1.332710         3.241327         0.799834
 C        -0.378743         4.300270         0.289069
 O         0.946980         3.818783         0.260913
 C         0.996357         3.199382         1.592817
 C        -0.334108         2.284875         1.691889
 H         0.958195         0.457586         0.789453
 H        -2.521928         0.067669        -0.142181
 H        -2.847698         1.040607         1.295579
 H        -1.474038         2.125815        -1.324364
 H        -2.348089         3.656594         1.179081
 H        -0.483156         4.690639        -0.763601
 H        -0.391422         5.257630         0.850381
 H         1.856813         2.642018         1.799944
 H         0.732890         3.956761         2.352750
 H        -0.422426         2.045068         2.768948
