19
Iteration:  3771charge 0 multiplicity 1
 O         0.164469         0.042897         0.209345
 C        -0.699744         1.169248         0.602171
 C        -2.120659         0.921928         0.547922
 C        -1.626747         2.049093        -0.241113
 C        -1.256289         3.256548         0.585533
 C        -0.269516         4.265351         0.008788
 O         0.897420         4.287250         0.893745
 C         1.044779         2.969152         1.445887
 C        -0.412388         2.378012         1.510575
 H         1.029079         0.329553         0.311037
 H        -2.510356         0.196028        -0.164465
 H        -2.806297         1.130409         1.438879
 H        -1.565420         1.948526        -1.312171
 H        -2.213811         3.613065         1.170033
 H         0.026042         3.993266        -0.967792
 H        -0.671355         5.316337         0.065996
 H         1.628994         2.383965         0.752047
 H         1.479866         3.126151         2.440307
 H        -0.697165         2.346395         2.607332
