19
Iteration:  4782charge 0 multiplicity 1
 O         0.338565         0.279996         0.269455
 C        -0.704137         1.179433         0.573068
 C        -2.212781         0.830059         0.624556
 C        -1.628850         1.958453        -0.291563
 C        -1.341000         3.225875         0.627917
 C        -0.305923         4.345693         0.017788
 O         0.986376         4.197661         0.771859
 C         1.051580         2.942633         1.477624
 C        -0.371289         2.367128         1.509139
 H         0.113057        -0.502555        -0.296347
 H        -2.689787        -0.038452         0.149902
 H        -3.033275         1.228800         1.417132
 H        -1.845736         1.984139        -1.344492
 H        -2.202321         3.633845         1.199101
 H        -0.190992         4.418029        -1.046225
 H        -0.686229         5.408373         0.294266
 H         1.750484         2.269495         0.999193
 H         1.174691         3.224310         2.468378
 H        -0.818206         2.323471         2.542310
