19
Iteration:   316
 O         0.256788         0.273688         0.283365
 C        -0.625642         1.250676         0.626215
 C        -2.042083         1.016030         0.582194
 C        -1.505997         2.154205        -0.289598
 C        -1.305663         3.161359         0.768542
 C        -0.521963         4.410063         0.322701
 O         0.837337         3.844003         0.242594
 C         1.011613         2.952687         1.332723
 C        -0.333895         2.351722         1.684887
 H         0.089809        -0.439585         0.901840
 H        -2.413661         0.156378         0.050598
 H        -2.568100         1.258835         1.449726
 H        -1.209350         2.172756        -1.380987
 H        -2.265068         3.478943         1.264990
 H        -0.674542         4.902359        -0.610384
 H        -0.469658         5.131702         1.124064
 H         1.628062         2.168779         0.964605
 H         1.509393         3.394710         2.185826
 H        -0.640765         2.106394         2.784757
