19
Iteration:  4120
 O         0.178016         0.127978         0.140691
 C        -0.693540         1.100412         0.610634
 C        -2.172844         0.934610         0.577256
 C        -1.514333         1.979542        -0.345900
 C        -1.248304         3.249567         0.592493
 C        -0.222225         4.269956        -0.024271
 O         0.843540         4.353738         0.978714
 C         1.045212         3.040643         1.429417
 C        -0.405721         2.349481         1.563916
 H        -0.037523        -0.620472         0.749841
 H        -2.679620        -0.005625         0.219743
 H        -2.751458         1.237937         1.588663
 H        -1.552410         2.043452        -1.454922
 H        -2.199926         3.500223         1.138610
 H         0.152619         3.631718        -0.868033
 H        -0.511997         5.265830        -0.245340
 H         1.608472         2.514721         0.642518
 H         1.565490         3.106264         2.411506
 H        -0.788773         2.318040         2.569519
