19
Iteration:  2579
 O         0.279899         0.198488         0.293023
 C        -0.629497         1.242329         0.626404
 C        -2.059332         0.820820         0.522368
 C        -1.788992         2.091421        -0.117258
 C        -1.309417         3.335727         0.820078
 C        -0.348916         4.389206         0.140956
 O         0.996667         3.872489         0.279337
 C         0.969365         3.028231         1.496095
 C        -0.425899         2.356416         1.582608
 H         1.043022         0.687344         0.076306
 H        -2.172428         0.005664        -0.157307
 H        -2.753703         0.718586         1.317594
 H        -1.889733         2.361363        -1.191417
 H        -2.079923         3.759947         1.275258
 H        -0.571741         4.704756        -0.893964
 H        -0.369417         5.322528         0.768775
 H         1.763942         2.183153         1.350062
 H         1.141708         3.665526         2.345278
 H        -0.815459         2.052258         2.588509
