19
Iteration:  3650charge 0 multiplicity 1
 O         0.173583         0.037596         0.340295
 C        -0.730600         1.075580         0.593112
 C        -2.213794         0.984434         0.663104
 C        -1.463438         2.004978        -0.333834
 C        -1.166953         3.157205         0.562288
 C        -0.361962         4.365452         0.058228
 O         0.818925         4.355001         0.856556
 C         1.046356         2.980959         1.443300
 C        -0.252137         2.331340         1.431231
 H         0.310338         0.106064        -0.702207
 H        -2.561104         0.074848         0.097570
 H        -2.900784         1.481062         1.414835
 H        -2.029473         2.046008        -1.274793
 H        -2.078709         3.579939         1.132937
 H         0.023910         4.118089        -0.974222
 H        -0.837803         5.409665         0.187509
 H         1.821370         2.549793         0.657825
 H         1.496451         3.053465         2.409890
 H        -0.803129         2.276887         2.407996
