19
Iteration:  3639charge 0 multiplicity 1
 O         0.210588        -0.016385         0.318011
 C        -0.686480         1.066011         0.612648
 C        -2.180874         1.000469         0.668307
 C        -1.543645         1.976505        -0.328683
 C        -1.225390         3.241102         0.530139
 C        -0.305820         4.376942         0.048442
 O         0.832047         4.372673         0.909769
 C         1.050810         2.951065         1.315299
 C        -0.367330         2.315639         1.510011
 H         0.711836         0.212856        -0.487311
 H        -2.722993         0.183819         0.116166
 H        -2.770895         1.401722         1.556589
 H        -1.770837         2.059298        -1.416617
 H        -2.194379         3.637309         0.975874
 H        -0.155297         4.360490        -1.076634
 H        -0.772424         5.430228         0.173939
 H         1.819257         2.196735         0.844687
 H         1.453425         3.164953         2.285061
 H        -0.567633         2.293680         2.624701
