19
Iteration:  4685
 O         0.209995         0.027660         0.344063
 C        -0.670850         1.117522         0.588762
 C        -2.175858         0.947795         0.594454
 C        -1.535413         2.021738        -0.288466
 C        -1.310080         3.200233         0.613722
 C        -0.270873         4.285742         0.031063
 O         0.813507         4.389425         0.969137
 C         1.067435         3.033042         1.290663
 C        -0.333595         2.314022         1.482464
 H        -0.151175        -0.454908        -0.436595
 H        -2.711508         0.153415         0.060856
 H        -2.720418         1.283471         1.536127
 H        -1.594206         2.076750        -1.372935
 H        -2.248071         3.760769         1.007464
 H         0.052470         4.080059        -1.035212
 H        -0.703206         5.309746        -0.183130
 H         1.765268         2.621621         0.427653
 H         1.653958         3.031462         2.222178
 H        -0.360804         2.204661         2.532505
