19
Iteration:  4648
 O         0.225506         0.120892         0.306735
 C        -0.682809         1.109965         0.619063
 C        -2.169994         0.921405         0.648294
 C        -1.597373         1.946091        -0.329055
 C        -1.317021         3.211132         0.480184
 C        -0.276312         4.434906         0.073324
 O         0.842439         4.330519         0.979626
 C         1.084840         2.975713         1.260753
 C        -0.305012         2.341607         1.457064
 H        -0.236023        -0.785129         0.551924
 H        -2.650126        -0.032367         0.138658
 H        -2.695569         1.433198         1.491531
 H        -1.428773         1.895852        -1.418324
 H        -2.269829         3.575459         0.839422
 H         0.111117         4.409253        -0.955890
 H        -0.749171         5.350867         0.416530
 H         1.704292         2.467977         0.535783
 H         1.450205         2.984201         2.288950
 H        -0.548802         1.975912         2.524120
