19
Iteration:  4388
 O         0.143755         0.021828         0.172464
 C        -0.701778         1.168088         0.608658
 C        -2.205924         0.917737         0.431211
 C        -1.519215         2.093938        -0.314694
 C        -1.281460         3.221656         0.671824
 C        -0.266954         4.245367         0.095991
 O         0.854047         4.361643         0.865702
 C         1.058608         3.043051         1.421211
 C        -0.336224         2.341832         1.614958
 H         0.400947        -0.412346         1.068806
 H        -2.220237         0.002722        -0.129640
 H        -2.989672         0.862577         1.342647
 H        -1.322974         2.304714        -1.360860
 H        -2.287649         3.487249         1.151317
 H         0.148261         3.780529        -0.877443
 H        -0.710936         5.300309        -0.247830
 H         1.618231         2.478275         0.656549
 H         1.682489         3.200705         2.251304
 H        -0.645674         2.266336         2.689997
