19
Iteration:  1824
 O         0.299407         0.205907         0.205405
 C        -0.726161         1.208019         0.561646
 C        -2.165718         0.877443         0.595533
 C        -1.691624         2.061831        -0.227002
 C        -1.287556         3.325639         0.747533
 C        -0.395138         4.428682         0.188645
 O         1.004867         3.948223         0.392172
 C         1.050201         3.036736         1.478570
 C        -0.335672         2.288208         1.562103
 H         0.462163        -0.376557         1.075797
 H        -2.564468         0.032669         0.022140
 H        -2.939091         1.051291         1.446807
 H        -1.916539         2.202912        -1.299485
 H        -2.186129         3.667164         1.376522
 H        -0.598559         4.700825        -0.910856
 H        -0.427237         5.322175         0.855553
 H         1.866556         2.278501         1.479745
 H         1.281472         3.582080         2.393563
 H        -0.610525         2.128123         2.595957
