19
Iteration:   141charge 0 multiplicity 1
 O         0.381415         0.362398         0.224564
 C        -0.635855         1.162604         0.663376
 C        -2.151959         1.020723         0.547410
 C        -1.429892         2.158497        -0.103737
 C        -1.370368         3.243405         0.840455
 C        -0.454457         4.353535         0.224966
 O         0.855354         3.775166         0.145341
 C         0.965399         3.012021         1.404695
 C        -0.384354         2.273897         1.672613
 H         0.408196        -0.518540         0.681741
 H        -2.675830         0.417847        -0.113289
 H        -2.640181         1.175366         1.475906
 H        -1.685842         2.144908        -1.140090
 H        -2.359498         3.584094         1.327602
 H        -0.793650         4.616041        -0.710881
 H        -0.418244         5.337428         0.783093
 H         1.748733         2.330326         1.296084
 H         1.306123         3.668060         2.246951
 H        -0.525255         2.118969         2.718318
