19
Iteration:  1943
 O         0.352165         0.390618         0.268088
 C        -0.684786         1.188113         0.669224
 C        -2.143510         0.934345         0.455915
 C        -1.555284         2.182623        -0.166719
 C        -1.339697         3.278407         0.853799
 C        -0.419464         4.376974         0.195167
 O         0.928914         3.783614         0.192063
 C         0.972268         2.915858         1.455182
 C        -0.395408         2.347374         1.691206
 H         0.395470        -0.268373         0.978349
 H        -2.249221         0.063566        -0.220123
 H        -2.876223         0.826481         1.263247
 H        -1.530361         2.321463        -1.254994
 H        -2.197742         3.902272         1.234406
 H        -0.678739         4.509816        -0.889418
 H        -0.443894         5.315448         0.798164
 H         1.752625         2.058387         1.098751
 H         1.395922         3.317834         2.442225
 H        -0.662654         2.257330         2.826317
