19
Iteration:  1657
 O         0.270407         0.221910         0.182492
 C        -0.586986         1.263731         0.532244
 C        -2.156056         0.905710         0.591819
 C        -1.688137         2.142137        -0.215234
 C        -1.352965         3.191134         0.761422
 C        -0.352092         4.331082         0.220401
 O         0.983736         3.912379         0.391650
 C         0.983014         3.040143         1.471635
 C        -0.353343         2.347397         1.605696
 H         0.444335        -0.308262         0.899753
 H        -2.583816        -0.060143         0.159255
 H        -2.833345         1.292022         1.397886
 H        -1.719341         2.327342        -1.280024
 H        -2.161908         3.865006         1.255154
 H        -0.581211         4.483488        -0.841943
 H        -0.466209         5.342737         0.749880
 H         1.862121         2.263722         1.283078
 H         1.316053         3.681135         2.423908
 H        -0.650740         2.079326         2.634448
