19
Iteration:  2946charge 0 multiplicity 1
 O         0.412930         0.386881         0.271328
 C        -0.666287         1.176753         0.637585
 C        -2.129668         0.938029         0.588756
 C        -1.526462         2.121169        -0.227145
 C        -1.310270         3.264742         0.681581
 C        -0.420801         4.388245         0.194506
 O         0.934550         3.881565         0.405166
 C         0.967238         2.911858         1.443446
 C        -0.482372         2.309731         1.625177
 H        -0.007768        -0.436673         0.016944
 H        -2.392674         0.073059        -0.048836
 H        -2.928532         1.242298         1.326778
 H        -1.726794         2.134359        -1.279903
 H        -2.240343         3.631226         1.138040
 H        -0.349750         4.674309        -0.888606
 H        -0.598308         5.295576         0.835792
 H         1.699182         2.015157         1.179757
 H         1.380204         3.331589         2.436498
 H        -0.951384         2.196342         2.627163
