19
Iteration:   906
 O         0.341971         0.205623         0.418472
 C        -0.583233         1.256542         0.564309
 C        -2.058046         0.967350         0.530420
 C        -1.632737         2.150958        -0.253639
 C        -1.256283         3.281960         0.841518
 C        -0.481716         4.451675         0.313722
 O         0.841008         3.886804         0.261484
 C         1.006296         2.901487         1.344293
 C        -0.348805         2.308443         1.569484
 H        -0.130765        -0.567259         0.541654
 H        -2.364062         0.304005        -0.307947
 H        -2.805426         1.091900         1.256626
 H        -1.859108         2.331082        -1.288406
 H        -2.172538         3.548929         1.414505
 H        -0.794979         4.682825        -0.735436
 H        -0.430648         5.333460         0.902827
 H         1.776247         2.260965         0.990038
 H         1.327175         3.503730         2.244247
 H        -0.602056         1.984385         2.673315
