19
Iteration:  3522charge 0 multiplicity 1
 O         0.143333        -0.005981         0.276907
 C        -0.705092         1.044216         0.680358
 C        -2.175285         0.933411         0.643758
 C        -1.536030         1.950261        -0.298351
 C        -1.280358         3.187367         0.466086
 C        -0.335805         4.418791         0.145731
 O         0.979682         4.344753         0.767616
 C         1.012985         3.066904         1.417137
 C        -0.367924         2.357735         1.473311
 H         0.859448         0.286830        -0.295633
 H        -2.698709         0.073835         0.216181
 H        -2.702352         1.377967         1.451590
 H        -1.472657         1.777165        -1.386438
 H        -2.230427         3.563143         0.956194
 H        -0.139240         4.604170        -0.891305
 H        -0.940873         5.279877         0.647161
 H         1.748444         2.469728         0.732229
 H         1.531123         3.224608         2.509385
 H        -0.666062         2.192973         2.517992
