19
Iteration:   182charge 0 multiplicity 1
 O         0.320662         0.511965         0.168390
 C        -0.708408         1.270130         0.641796
 C        -2.065558         0.808790         0.626064
 C        -1.706822         2.091407        -0.160757
 C        -1.407393         3.276198         0.763977
 C        -0.363630         4.291831         0.264839
 O         1.011253         3.692316         0.195469
 C         1.007318         3.017096         1.400759
 C        -0.400001         2.431559         1.679325
 H         0.531061        -0.199945         0.864442
 H        -2.137185         0.120029        -0.184866
 H        -2.691445         0.554079         1.518532
 H        -2.042539         2.199903        -1.149964
 H        -2.277671         3.751014         1.220919
 H        -0.434977         4.765299        -0.774347
 H        -0.325830         5.067809         1.079176
 H         1.753601         2.187850         1.392173
 H         1.289528         3.658112         2.313207
 H        -0.629517         2.160226         2.784584
