19
Iteration:  2478charge 0 multiplicity 1
 O         0.251073         0.266421         0.360642
 C        -0.659013         1.167198         0.588911
 C        -2.090216         0.867133         0.481834
 C        -1.700302         2.234387        -0.168202
 C        -1.330238         3.311955         0.829295
 C        -0.404324         4.284310         0.210941
 O         0.924790         3.809993         0.219868
 C         1.072081         3.133344         1.521471
 C        -0.385342         2.243749         1.550820
 H         1.198297         0.649180         0.231724
 H        -2.340211         0.177007        -0.340918
 H        -2.766097         0.792832         1.350292
 H        -1.862707         2.388315        -1.216667
 H        -2.039841         3.663015         1.475510
 H        -0.573736         4.504848        -0.807306
 H        -0.434049         5.217689         0.830562
 H         1.986181         2.414511         1.494569
 H         1.258251         3.786956         2.381499
 H        -0.667335         2.043516         2.619938
