19
Iteration:  3839charge 0 multiplicity 1
 O         0.171554         0.118098         0.323241
 C        -0.652403         1.118874         0.581293
 C        -2.173810         0.933988         0.616007
 C        -1.541854         1.974924        -0.347887
 C        -1.285268         3.203887         0.551557
 C        -0.195698         4.370778         0.038619
 O         0.845784         4.366461         1.002439
 C         1.030276         2.955618         1.331562
 C        -0.395748         2.315595         1.528899
 H         0.048539        -0.315917        -0.597488
 H        -2.645263         0.180203        -0.012439
 H        -2.825418         1.244119         1.389407
 H        -1.416143         1.848698        -1.438432
 H        -2.204726         3.752126         1.036902
 H         0.230727         3.984729        -0.844021
 H        -0.563327         5.448192        -0.075925
 H         1.404282         2.359444         0.434738
 H         1.644235         2.894283         2.232183
 H        -0.768293         2.153392         2.586168
