19
Iteration:  3748charge 0 multiplicity 1
 O         0.255391         0.253378         0.170652
 C        -0.775205         1.143244         0.636487
 C        -2.187944         0.869080         0.659305
 C        -1.562935         2.016718        -0.270075
 C        -1.246146         3.268172         0.494963
 C        -0.194079         4.287089         0.004522
 O         0.874046         4.267361         0.936435
 C         0.974587         2.822516         1.352564
 C        -0.434489         2.358685         1.539057
 H         1.069427         0.332444         0.840213
 H        -2.580091        -0.047691         0.139288
 H        -2.831280         1.224912         1.592180
 H        -1.660707         2.161220        -1.344451
 H        -2.236939         3.766478         0.972704
 H         0.092448         4.050242        -0.983053
 H        -0.506853         5.340973         0.093459
 H         1.433293         2.237878         0.599503
 H         1.470389         3.093038         2.251061
 H        -0.601758         2.104338         2.628531
