19
Iteration:  4652charge 0 multiplicity 1
 O         0.218467         0.100398         0.302643
 C        -0.661052         1.119804         0.634394
 C        -2.169645         0.957005         0.650915
 C        -1.593321         1.949406        -0.338448
 C        -1.287103         3.201445         0.474189
 C        -0.259414         4.460810         0.050076
 O         0.822341         4.328118         0.977113
 C         1.070208         2.984427         1.285965
 C        -0.333091         2.319183         1.464892
 H        -0.214381        -0.706740         0.362058
 H        -2.602445         0.025831         0.281397
 H        -2.616637         1.296977         1.627366
 H        -1.448429         1.852826        -1.423488
 H        -2.335251         3.579775         0.812714
 H         0.026325         4.427788        -1.031148
 H        -0.866479         5.288924         0.468116
 H         1.796977         2.418366         0.546872
 H         1.475958         2.813400         2.267028
 H        -0.458186         2.030668         2.459404
