19
Iteration:  3168charge 0 multiplicity 1
 O         0.337930         0.329962         0.213315
 C        -0.668073         1.249331         0.643964
 C        -2.193364         0.996695         0.477222
 C        -1.392237         2.010302        -0.338923
 C        -1.392875         3.250865         0.633097
 C        -0.409336         4.396059         0.348180
 O         0.923866         3.800917         0.376278
 C         0.976091         2.966411         1.545893
 C        -0.478690         2.378723         1.627560
 H         0.840116        -0.077680         0.985781
 H        -2.496435         0.101286        -0.043628
 H        -2.811060         1.255472         1.331439
 H        -1.286918         1.949154        -1.404129
 H        -2.359590         3.635516         1.170135
 H        -0.625101         4.761718        -0.604847
 H        -0.519704         5.165996         1.179878
 H         1.698990         2.175191         1.108800
 H         1.344412         3.529826         2.384047
 H        -0.661563         2.201665         2.697939
