19
Iteration:  2596
 O         0.271598         0.221417         0.210705
 C        -0.670661         1.192659         0.639621
 C        -2.075437         0.888388         0.549328
 C        -1.632658         2.198296        -0.219073
 C        -1.409812         3.289925         0.743180
 C        -0.403346         4.275240         0.194634
 O         0.934653         3.781055         0.304104
 C         1.020931         3.081475         1.500579
 C        -0.343601         2.407775         1.698133
 H         1.179712         0.568083         0.111182
 H        -2.316009         0.069679        -0.167971
 H        -2.651239         0.937847         1.547346
 H        -1.847635         2.241057        -1.265411
 H        -2.362218         3.842101         1.390687
 H        -0.558380         4.317358        -0.882270
 H        -0.559327         5.246488         0.666154
 H         1.862613         2.483691         1.412006
 H         1.209120         3.772243         2.396815
 H        -0.474931         2.240558         2.765228
