19
Iteration:   857
 O         0.212504         0.245173         0.113137
 C        -0.720369         1.100412         0.742904
 C        -2.193231         0.847861         0.605419
 C        -1.518425         2.036121        -0.138314
 C        -1.225907         3.267316         0.706752
 C        -0.370973         4.381941         0.262525
 O         0.929928         3.947683         0.277267
 C         0.965030         3.154313         1.467514
 C        -0.330976         2.371645         1.568548
 H         0.052745        -0.769611         0.391335
 H        -2.340759         0.021168        -0.099276
 H        -2.751583         0.836233         1.603585
 H        -1.492192         2.211598        -1.262708
 H        -2.160937         3.592348         1.253906
 H        -0.407009         4.946029        -0.673248
 H        -0.401899         5.189217         1.052068
 H         1.984055         2.599460         1.464417
 H         1.118900         3.808752         2.320375
 H        -0.533354         2.337028         2.599862
