19
Iteration:  2662
 O         0.328501         0.268043         0.313173
 C        -0.652308         1.298475         0.628596
 C        -2.110080         0.785350         0.572681
 C        -1.695630         2.114663        -0.252988
 C        -1.336895         3.300331         0.739542
 C        -0.383282         4.372956         0.230040
 O         0.936490         3.805497         0.269454
 C         0.963815         2.983676         1.454583
 C        -0.394378         2.407771         1.665773
 H         0.768159         0.653934        -0.418793
 H        -2.191328        -0.139518        -0.001765
 H        -2.656150         0.894206         1.560840
 H        -1.733760         2.059970        -1.344384
 H        -2.212956         3.918881         1.235951
 H        -0.502282         4.710727        -0.780662
 H        -0.255377         5.230228         0.920793
 H         1.670169         2.262249         1.478331
 H         1.350577         3.563612         2.330531
 H        -0.565553         2.277222         2.728839
