19
Iteration:    30charge 0 multiplicity 1
 O         0.212143         0.242455         0.172049
 C        -0.681350         1.134547         0.754958
 C        -2.117280         0.727112         0.560322
 C        -1.493325         1.999903        -0.108992
 C        -1.299864         3.330416         0.751226
 C        -0.349608         4.497201         0.264162
 O         0.932776         4.021729         0.301949
 C         1.011451         2.976710         1.282087
 C        -0.412268         2.428106         1.659332
 H         0.300562        -0.596846         0.788962
 H        -2.389627        -0.063326        -0.182388
 H        -2.954247         1.000177         1.201327
 H        -1.729559         1.930712        -1.183698
 H        -2.255284         3.788946         1.254857
 H        -0.623229         4.920447        -0.693227
 H        -0.518136         5.491179         0.817113
 H         1.732716         2.196595         0.993915
 H         1.498104         3.299351         2.236560
 H        -0.659687         2.454645         2.712621
