19
Iteration:  1553
 O         0.475599         0.352343         0.238227
 C        -0.609763         1.200757         0.586273
 C        -2.154906         0.988789         0.532771
 C        -1.625386         2.250112        -0.194245
 C        -1.369231         3.266693         0.827891
 C        -0.421410         4.341435         0.191091
 O         0.894904         3.705564         0.220066
 C         0.965086         2.946181         1.517340
 C        -0.378321         2.303157         1.669554
 H         0.132111        -0.573285         0.562615
 H        -2.657157         0.323101        -0.229738
 H        -2.655102         1.178179         1.478238
 H        -2.018423         2.440562        -1.172124
 H        -2.099260         3.795686         1.373454
 H        -0.714451         4.674580        -0.862691
 H        -0.414560         5.283352         0.850631
 H         1.725016         2.194182         1.591455
 H         1.195664         3.866401         2.245262
 H        -0.673878         2.092945         2.744538
