19
Iteration:  2212charge 0 multiplicity 1
 O         0.391681         0.287079         0.247269
 C        -0.645251         1.215123         0.534138
 C        -2.108941         0.989495         0.652200
 C        -1.618498         2.086049        -0.249763
 C        -1.401839         3.286946         0.739630
 C        -0.430110         4.400194         0.251192
 O         0.994043         3.850961         0.322340
 C         0.986154         2.972944         1.495926
 C        -0.408881         2.304973         1.538484
 H         0.214018        -0.587942         0.540599
 H        -2.447386        -0.040780         0.276671
 H        -2.588426         1.372268         1.599641
 H        -1.835925         2.262498        -1.271537
 H        -2.354315         3.713274         1.242001
 H        -0.562173         4.813047        -0.791874
 H        -0.664121         5.279919         0.913358
 H         1.613955         2.113127         1.329573
 H         1.227414         3.512844         2.412169
 H        -0.626265         2.058796         2.576325
