19
Iteration:  1283charge 0 multiplicity 1
 O         0.316844         0.352999         0.205161
 C        -0.653420         1.282898         0.614038
 C        -2.132125         0.857062         0.568373
 C        -1.662755         2.116422        -0.166249
 C        -1.342357         3.267307         0.741974
 C        -0.390608         4.335890         0.261909
 O         0.970570         3.772441         0.231022
 C         1.004906         3.005289         1.522411
 C        -0.358183         2.379163         1.584391
 H         0.347804        -0.294130         0.935663
 H        -2.215515        -0.038331         0.017615
 H        -2.771880         0.908954         1.418706
 H        -1.920721         2.262386        -1.250718
 H        -2.193707         3.768455         1.256654
 H        -0.625018         4.788675        -0.622577
 H        -0.386939         5.233325         0.985289
 H         1.857702         2.311455         1.380923
 H         1.007955         3.721263         2.294246
 H        -0.668469         2.174328         2.562428
