19
Iteration:    96
 O         0.231335         0.090435         0.257625
 C        -0.644744         1.160804         0.685103
 C        -2.075674         0.844184         0.557885
 C        -1.556434         2.090554        -0.180411
 C        -1.338358         3.293583         0.757815
 C        -0.462174         4.449360         0.335863
 O         0.918799         4.022540         0.205629
 C         1.078118         3.017679         1.368036
 C        -0.341150         2.390715         1.584880
 H         0.029053        -0.607914         0.951544
 H        -2.380316         0.042002        -0.093749
 H        -2.856344         0.947279         1.286344
 H        -1.569310         2.230657        -1.237616
 H        -2.295196         3.757998         1.212302
 H        -0.758399         5.030683        -0.507134
 H        -0.643333         5.225385         1.121462
 H         1.979439         2.455814         1.211607
 H         1.404389         3.686447         2.181720
 H        -0.612905         2.231953         2.632659
