19
Iteration:   629
 O         0.281380         0.158649         0.426130
 C        -0.606410         1.187127         0.491605
 C        -2.169655         0.980253         0.551570
 C        -1.646865         2.103218        -0.286036
 C        -1.363214         3.230201         0.739570
 C        -0.416828         4.449282         0.404551
 O         0.892697         3.960427         0.272621
 C         1.078689         3.044265         1.351477
 C        -0.229052         2.297192         1.529771
 H        -0.201091        -0.578485         0.765687
 H        -2.735556         0.236772        -0.015079
 H        -2.635645         1.016803         1.518201
 H        -1.751106         1.977755        -1.334756
 H        -2.289327         3.474559         1.373073
 H        -0.756447         4.879144        -0.599463
 H        -0.456260         5.350867         1.101608
 H         1.820083         2.365265         1.048462
 H         1.501937         3.538141         2.377550
 H        -0.425650         2.110504         2.678267
