19
Iteration:  1114
 O         0.338137         0.326163         0.149317
 C        -0.655210         1.158124         0.752781
 C        -2.096377         0.885822         0.445658
 C        -1.636959         2.189695        -0.120369
 C        -1.284839         3.327061         0.869895
 C        -0.345375         4.368326         0.236327
 O         0.859589         3.735782         0.182683
 C         0.977621         3.043862         1.462560
 C        -0.396864         2.375219         1.682848
 H         0.317486        -0.572157         0.618844
 H        -2.287287         0.187472        -0.328892
 H        -2.729179         0.894702         1.370900
 H        -1.590286         2.204022        -1.212986
 H        -2.272915         3.752904         1.280701
 H        -0.749351         4.551362        -0.786312
 H        -0.349129         5.258735         0.938626
 H         1.798593         2.344381         1.403240
 H         1.130831         3.856242         2.231952
 H        -0.564291         2.126404         2.698674
