19
Iteration:  1225
 O         0.265318         0.197211         0.198128
 C        -0.659031         1.150839         0.666764
 C        -2.156780         1.074658         0.623540
 C        -1.473391         2.058749        -0.248044
 C        -1.308117         3.171069         0.792895
 C        -0.485396         4.381242         0.214231
 O         0.904659         4.055125         0.358094
 C         1.061062         3.043104         1.375815
 C        -0.348710         2.266751         1.632047
 H         0.048279        -0.685759         0.612282
 H        -2.812310         0.310285         0.114635
 H        -2.608394         1.649520         1.455914
 H        -1.373887         1.993207        -1.305024
 H        -2.404820         3.387669         1.192288
 H        -0.619706         4.410853        -0.911459
 H        -0.514492         5.378891         0.757749
 H         1.839075         2.307555         1.083613
 H         1.490620         3.324270         2.339160
 H        -0.705431         1.908844         2.563004
