19
Iteration:  3242charge 0 multiplicity 1
 O         0.253829         0.223999         0.284353
 C        -0.669125         1.221585         0.604416
 C        -2.067788         0.961469         0.442137
 C        -1.422230         2.160925        -0.243074
 C        -1.347851         3.203890         0.791515
 C        -0.439305         4.335223         0.171673
 O         0.932184         3.890886         0.403418
 C         0.920912         3.130278         1.571194
 C        -0.335180         2.247853         1.632661
 H        -0.247640        -0.404456        -0.122593
 H        -2.228869         0.274379        -0.379900
 H        -2.850163         1.112118         1.212262
 H        -1.409434         2.370308        -1.292476
 H        -2.368548         3.504393         1.120656
 H        -0.419258         4.232115        -0.927912
 H        -0.685045         5.308484         0.599504
 H         1.675191         2.497391         1.452948
 H         1.034084         3.819967         2.500892
 H        -0.532641         2.084367         2.684068
