19
Iteration:  3784charge 0 multiplicity 1
 O         0.088400         0.042258         0.296261
 C        -0.658809         1.112953         0.571365
 C        -2.199776         0.898392         0.510307
 C        -1.556122         2.090659        -0.368575
 C        -1.306002         3.234978         0.654517
 C        -0.277976         4.230482         0.074828
 O         0.893867         4.341057         0.858791
 C         1.046474         3.028366         1.441293
 C        -0.295314         2.343787         1.535475
 H         0.984488         0.376268        -0.175994
 H        -2.312024        -0.094216         0.121035
 H        -2.800400         1.075134         1.361035
 H        -1.846452         2.379883        -1.384045
 H        -2.111465         3.912869         1.056829
 H         0.004690         3.869416        -0.916056
 H        -0.736715         5.288334        -0.087597
 H         1.815553         2.434212         1.034589
 H         1.499685         3.072316         2.432508
 H        -0.642544         2.056228         2.557313
