19
Iteration:  1511charge 0 multiplicity 1
 O         0.288259         0.377377         0.213490
 C        -0.685482         1.205084         0.765963
 C        -2.113698         0.842886         0.400748
 C        -1.520004         2.095140        -0.119560
 C        -1.307234         3.323627         0.803994
 C        -0.396133         4.417491         0.313530
 O         0.927691         3.784845         0.130973
 C         0.981238         2.954008         1.387357
 C        -0.445916         2.407989         1.787969
 H         0.026625        -0.613824         0.455477
 H        -2.187288         0.087841        -0.394642
 H        -2.808605         0.771939         1.112714
 H        -1.347837         2.121348        -1.182798
 H        -2.285177         3.646242         1.215032
 H        -0.599613         4.945433        -0.572183
 H        -0.236573         5.174728         1.087771
 H         1.620394         2.171124         1.040253
 H         1.361428         3.528430         2.210958
 H        -0.541577         2.393126         2.921605
