19
Iteration:  2448
 O         0.289282         0.291946         0.240002
 C        -0.633471         1.181279         0.681325
 C        -2.115164         0.923101         0.616466
 C        -1.531224         2.119843        -0.193613
 C        -1.356168         3.303761         0.761852
 C        -0.407580         4.327357         0.228150
 O         0.923911         3.823312         0.312652
 C         0.986026         2.982985         1.420308
 C        -0.440006         2.367647         1.559453
 H         1.240961         0.606354         0.168421
 H        -2.344518         0.176925        -0.078427
 H        -2.830134         1.164756         1.337855
 H        -1.824301         2.279043        -1.216145
 H        -2.336565         3.589939         1.412271
 H        -0.528652         4.546750        -0.835102
 H        -0.492152         5.262036         0.785858
 H         1.629316         2.082409         1.223476
 H         1.382873         3.480799         2.322135
 H        -0.727845         2.262482         2.639524
