19
Iteration:  3505
 O         0.168189        -0.028220         0.296130
 C        -0.692102         1.110136         0.573478
 C        -2.257418         0.937117         0.652266
 C        -1.518840         1.953731        -0.351971
 C        -1.189528         3.246702         0.591043
 C        -0.378940         4.431761         0.120043
 O         0.893764         4.276710         0.718666
 C         1.069272         3.059810         1.459777
 C        -0.322040         2.313313         1.525278
 H         0.966963         0.479441        -0.105527
 H        -2.517494         0.060683         0.055849
 H        -2.965549         1.276795         1.465433
 H        -1.688019         1.898511        -1.433955
 H        -2.127978         3.569653         1.017009
 H        -0.394297         4.494958        -1.024611
 H        -0.763607         5.375456         0.409445
 H         1.877745         2.433696         1.103244
 H         1.413582         3.292511         2.382756
 H        -0.710113         2.282927         2.560499
