19
Iteration:  3165charge 0 multiplicity 1
 O         0.346369         0.327600         0.208267
 C        -0.677915         1.256719         0.655512
 C        -2.192718         1.013235         0.442621
 C        -1.404192         1.998103        -0.302384
 C        -1.386616         3.273577         0.635513
 C        -0.410951         4.357548         0.349327
 O         0.934455         3.820868         0.342301
 C         0.966668         2.958700         1.544500
 C        -0.453930         2.344885         1.658853
 H         0.799030        -0.110976         1.027998
 H        -2.488580         0.146251        -0.164520
 H        -2.806920         1.235550         1.316010
 H        -1.339736         1.941249        -1.400795
 H        -2.339815         3.636051         1.199161
 H        -0.675391         4.853755        -0.623619
 H        -0.549247         5.179237         1.100409
 H         1.672868         2.289329         1.244585
 H         1.288670         3.558968         2.463662
 H        -0.725818         2.233129         2.702515
