19
Iteration:  2255charge 0 multiplicity 1
 O         0.240375         0.213390         0.130591
 C        -0.696234         1.157535         0.764998
 C        -2.159113         0.891155         0.480511
 C        -1.516993         2.088784        -0.218448
 C        -1.360336         3.235698         0.822345
 C        -0.452497         4.453581         0.253076
 O         1.021134         3.882184         0.266335
 C         0.991484         3.090756         1.440194
 C        -0.331166         2.390069         1.695906
 H         0.413483        -0.573295         0.755895
 H        -2.408413        -0.034749        -0.174421
 H        -3.050026         1.096091         1.160956
 H        -1.201753         2.122103        -1.235099
 H        -2.235159         3.584682         1.342522
 H        -0.802150         4.673441        -0.805634
 H        -0.390390         5.369977         0.769953
 H         1.822228         2.453597         1.440480
 H         1.049532         3.804458         2.287130
 H        -0.470403         2.056902         2.728135
