19
Iteration:  2819charge 0 multiplicity 1
 O         0.377959         0.315710         0.240639
 C        -0.693096         1.216834         0.701722
 C        -2.088918         0.826882         0.516964
 C        -1.655417         2.141013        -0.209441
 C        -1.296767         3.294015         0.760027
 C        -0.389381         4.381736         0.191556
 O         0.949515         3.879525         0.331567
 C         0.996456         2.917215         1.383075
 C        -0.491232         2.412672         1.659296
 H         0.415546        -0.407404         0.997086
 H        -2.267116         0.199308        -0.324934
 H        -2.804461         0.798962         1.300035
 H        -1.724882         2.254031        -1.280491
 H        -2.185728         3.795406         1.352158
 H        -0.572029         4.674458        -0.846949
 H        -0.429759         5.315844         0.863751
 H         1.679357         2.127823         1.105168
 H         1.312977         3.409918         2.422038
 H        -0.629881         2.199599         2.704600
