19
Iteration:   513
 O         0.282786         0.461610         0.110177
 C        -0.700791         1.206707         0.657190
 C        -2.070447         0.824941         0.682829
 C        -1.697059         2.080816        -0.157906
 C        -1.384496         3.271400         0.717212
 C        -0.320151         4.344752         0.274201
 O         1.006575         3.742329         0.201445
 C         1.024153         3.062271         1.501489
 C        -0.433475         2.331930         1.631060
 H         0.558103        -0.184035         0.733774
 H        -2.255775        -0.014262        -0.014157
 H        -2.771689         0.827748         1.496597
 H        -1.858444         2.161579        -1.224338
 H        -2.250431         3.762752         1.025350
 H        -0.441771         4.897206        -0.655300
 H        -0.344382         5.183804         1.067843
 H         1.886577         2.365995         1.404001
 H         1.260647         3.815840         2.377816
 H        -0.813857         2.218113         2.608128
