19
Iteration:  3288
 O         0.358933         0.353305         0.373783
 C        -0.713060         1.184890         0.598205
 C        -2.137300         0.843358         0.512907
 C        -1.513829         2.022324        -0.292882
 C        -1.371349         3.316114         0.649960
 C        -0.340138         4.385517         0.334287
 O         0.962155         3.840746         0.349965
 C         0.957119         2.997660         1.487960
 C        -0.448324         2.358676         1.568430
 H         0.467174         0.226530        -0.567621
 H        -2.470930         0.018695        -0.118261
 H        -2.773668         1.099784         1.368185
 H        -1.768871         2.112705        -1.349189
 H        -2.358264         3.784737         1.094192
 H        -0.448022         4.931625        -0.548876
 H        -0.298806         4.990293         1.274344
 H         1.861774         2.429154         1.555513
 H         0.792395         3.741907         2.330949
 H        -0.720753         2.026402         2.567640
