19
Iteration:  4955charge 0 multiplicity 1
 O         0.346596         0.374247         0.409512
 C        -0.665717         1.214331         0.689367
 C        -2.067125         0.906113         0.230350
 C        -1.441999         2.141269        -0.250583
 C        -1.313118         3.283584         0.816083
 C        -0.403927         4.392297         0.262763
 O         0.817987         3.722665         0.219794
 C         0.925880         3.035047         1.482649
 C        -0.448649         2.313836         1.788343
 H         0.045831        -0.304303        -0.195620
 H        -1.988280         0.013685        -0.300408
 H        -2.924364         1.063614         0.846134
 H        -1.192884         2.407219        -1.265928
 H        -2.176545         3.681405         1.344213
 H        -0.787269         4.499059        -0.788480
 H        -0.362073         5.267412         0.903307
 H         1.777162         2.335096         1.423942
 H         1.262194         3.698200         2.379886
 H        -0.701407         2.122025         2.851100
