19
Iteration:  3152
 O         0.347325         0.333171         0.242480
 C        -0.668705         1.119578         0.686029
 C        -2.174100         0.947958         0.382449
 C        -1.494944         2.174613        -0.238888
 C        -1.310062         3.226982         0.728372
 C        -0.392750         4.373954         0.280262
 O         0.926092         3.859041         0.288958
 C         0.934288         3.001708         1.523262
 C        -0.400532         2.290740         1.695723
 H         0.476320        -0.308124         0.897947
 H        -2.377829         0.118543        -0.317671
 H        -3.045481         1.167397         1.041137
 H        -1.416734         2.275328        -1.340349
 H        -2.289353         3.647076         1.001826
 H        -0.518237         4.766622        -0.813168
 H        -0.443801         5.115212         1.092157
 H         1.781025         2.382256         1.614318
 H         0.949570         3.755110         2.399279
 H        -0.792625         2.149942         2.720546
