19
Iteration:  3166
 O         0.343157         0.328762         0.208472
 C        -0.675792         1.256843         0.651053
 C        -2.193521         1.008955         0.453871
 C        -1.398670         1.999555        -0.314015
 C        -1.388678         3.266114         0.633038
 C        -0.410453         4.369852         0.348437
 O         0.931639         3.813812         0.353349
 C         0.970765         2.960386         1.545929
 C        -0.462934         2.355433         1.648847
 H         0.828192        -0.111381         1.033527
 H        -2.493201         0.133277        -0.126524
 H        -2.804479         1.238809         1.322637
 H        -1.321908         1.941153        -1.401297
 H        -2.360169         3.643465         1.204954
 H        -0.663264         4.819254        -0.609653
 H        -0.541853         5.179887         1.131211
 H         1.672284         2.261949         1.195187
 H         1.309342         3.552930         2.439274
 H        -0.698662         2.225498         2.697458
