19
Iteration:   307charge 0 multiplicity 1
 O         0.247976         0.306098         0.213959
 C        -0.630458         1.259434         0.670954
 C        -2.087499         1.018063         0.618897
 C        -1.439877         2.079133        -0.196256
 C        -1.308488         3.248664         0.691976
 C        -0.467750         4.305107         0.270651
 O         0.798446         3.880933         0.303582
 C         1.085835         2.950634         1.382824
 C        -0.351569         2.351590         1.624897
 H        -0.027279        -0.511253         0.647179
 H        -2.390364         0.133046         0.107379
 H        -2.697557         1.374410         1.462997
 H        -1.398626         2.046495        -1.278271
 H        -2.357201         3.493022         1.138596
 H        -0.801835         4.824781        -0.570327
 H        -0.641580         5.048229         1.160278
 H         1.740087         2.212723         0.854681
 H         1.523969         3.531405         2.269479
 H        -0.681803         2.080104         2.644374
