19
Iteration:  2480
 O         0.251322         0.260887         0.355490
 C        -0.653536         1.161343         0.585577
 C        -2.087471         0.867047         0.482798
 C        -1.687661         2.237978        -0.159286
 C        -1.321391         3.284989         0.823289
 C        -0.407347         4.292200         0.222857
 O         0.933857         3.797655         0.224587
 C         1.066789         3.138667         1.511479
 C        -0.398442         2.275565         1.549586
 H         1.095619         0.631902         0.199744
 H        -2.332597         0.183615        -0.270817
 H        -2.822481         0.755129         1.233231
 H        -1.918545         2.392917        -1.200793
 H        -2.116594         3.699094         1.553300
 H        -0.559250         4.513313        -0.806554
 H        -0.435931         5.216859         0.810931
 H         2.017873         2.425333         1.484782
 H         1.179575         3.820595         2.374905
 H        -0.595632         2.095576         2.632692
