19
Iteration:  4660charge 0 multiplicity 1
 O         0.221787         0.067094         0.295133
 C        -0.677087         1.120447         0.602513
 C        -2.147006         1.014160         0.674861
 C        -1.524886         1.950105        -0.342621
 C        -1.211727         3.211810         0.476979
 C        -0.305471         4.423433         0.068831
 O         0.802600         4.343394         0.963622
 C         1.029948         2.941678         1.340821
 C        -0.355785         2.304864         1.450882
 H        -0.266025        -0.692872         0.085054
 H        -2.532383        -0.065876         0.341771
 H        -2.633972         1.202137         1.665098
 H        -1.783951         1.748114        -1.429542
 H        -2.084724         3.708692         0.962582
 H        -0.090757         4.528914        -1.018599
 H        -0.856052         5.375300         0.198440
 H         1.674422         2.495325         0.541035
 H         1.670017         2.930259         2.190766
 H        -0.571845         2.388852         2.567891
