19
Iteration:  2034charge 0 multiplicity 1
 O         0.261235         0.215468         0.288929
 C        -0.657247         1.183698         0.589023
 C        -2.171641         0.998702         0.543087
 C        -1.545267         2.079207        -0.249820
 C        -1.263721         3.218401         0.799224
 C        -0.422011         4.326824         0.212657
 O         0.928656         3.990962         0.376211
 C         1.023952         3.012781         1.420429
 C        -0.336442         2.334507         1.560404
 H         0.058781        -0.544050         0.761428
 H        -2.516057         0.094595         0.049294
 H        -2.716163         1.373656         1.442028
 H        -1.761909         2.325341        -1.288077
 H        -2.199510         3.344808         1.269687
 H        -0.653591         4.478528        -0.842309
 H        -0.616685         5.279688         0.764121
 H         1.833684         2.417395         1.250825
 H         1.249313         3.589150         2.377864
 H        -0.631026         2.263071         2.560030
