19
Iteration:   438charge 0 multiplicity 1
 O         0.249977         0.314269         0.162811
 C        -0.664685         1.185281         0.632137
 C        -2.118443         0.825138         0.610619
 C        -1.807138         2.065687        -0.217716
 C        -1.339415         3.269955         0.730917
 C        -0.361966         4.368269         0.204523
 O         0.983378         3.906892         0.273710
 C         1.134461         3.099343         1.558704
 C        -0.318912         2.350621         1.603457
 H         0.176649        -0.556572         0.580729
 H        -2.083162        -0.111757         0.032155
 H        -2.839845         0.817830         1.445532
 H        -2.235968         2.108449        -1.186835
 H        -2.177862         3.683970         1.401587
 H        -0.563965         4.746812        -0.753648
 H        -0.454601         5.212592         0.911981
 H         2.092207         2.506036         1.470252
 H         1.339641         3.733231         2.383228
 H        -0.660228         2.126522         2.737986
