19
Iteration:  1975
 O         0.278151         0.306323         0.231750
 C        -0.678127         1.219722         0.711986
 C        -2.168674         1.024152         0.528093
 C        -1.419915         2.074565        -0.195398
 C        -1.386553         3.233250         0.701092
 C        -0.416887         4.358482         0.273560
 O         0.904352         3.822363         0.225502
 C         0.999257         3.031987         1.460419
 C        -0.362397         2.291239         1.667342
 H         0.255908        -0.660994         0.557075
 H        -2.381725         0.103054        -0.035438
 H        -2.727787         1.304342         1.401147
 H        -1.346620         2.171176        -1.276521
 H        -2.339185         3.784350         0.953034
 H        -0.667363         4.901288        -0.682132
 H        -0.571926         5.126677         1.115428
 H         1.839962         2.240503         1.117002
 H         1.221430         3.553233         2.421197
 H        -0.392670         2.387937         2.831722
