19
Iteration:   800
 O         0.395110         0.433898         0.117662
 C        -0.663477         1.178494         0.610364
 C        -2.227972         0.958201         0.622202
 C        -1.608182         2.061741        -0.139618
 C        -1.353258         3.344749         0.807982
 C        -0.407574         4.303035         0.141246
 O         0.993373         3.828974         0.312205
 C         0.976807         2.963801         1.466951
 C        -0.391633         2.291960         1.679320
 H         0.801657         0.057331         0.903314
 H        -2.630335         0.137945        -0.068510
 H        -2.769337         1.032880         1.615354
 H        -1.859245         2.105591        -1.174497
 H        -2.277492         3.644946         1.265368
 H        -0.580882         4.234065        -0.924484
 H        -0.513935         5.383187         0.477989
 H         1.834804         2.155697         1.244074
 H         1.151814         3.566062         2.359590
 H        -0.652994         2.029843         2.646264
