19
Iteration:   839
 O         0.250728         0.212791         0.101900
 C        -0.637531         1.221439         0.583581
 C        -2.109482         0.868570         0.658918
 C        -1.660090         2.034079        -0.190436
 C        -1.401369         3.257819         0.720447
 C        -0.375491         4.443488         0.283767
 O         1.039642         3.876333         0.285130
 C         1.029733         3.103335         1.495306
 C        -0.375201         2.361673         1.611550
 H         0.445165        -0.385884         0.965265
 H        -2.375588         0.005720         0.121786
 H        -2.728797         1.179412         1.455471
 H        -1.916362         1.854989        -1.231254
 H        -2.280837         3.810169         1.169239
 H        -0.598297         4.728370        -0.787674
 H        -0.469182         5.253353         1.004887
 H         1.793860         2.435684         1.463438
 H         1.133311         3.800017         2.412235
 H        -0.679893         2.178413         2.752670
