19
Iteration:  2530charge 0 multiplicity 1
 O         0.272989         0.281536         0.184679
 C        -0.594610         1.231550         0.739269
 C        -2.145929         0.999402         0.634449
 C        -1.434170         2.054389        -0.278188
 C        -1.320408         3.264372         0.708386
 C        -0.441102         4.330223         0.276631
 O         0.887749         3.779102         0.284210
 C         0.931757         2.993495         1.469430
 C        -0.372551         2.390112         1.642591
 H         0.939051         0.770819        -0.480128
 H        -2.556029         0.036389         0.138109
 H        -2.819873         1.123788         1.561319
 H        -1.726154         1.995826        -1.313115
 H        -2.361257         3.426573         1.159037
 H        -0.548045         4.708308        -0.750212
 H        -0.404443         5.224778         0.934453
 H         1.553448         2.158128         1.423272
 H         1.156411         3.698605         2.324564
 H        -0.668264         2.489296         2.678633
