19
Iteration:   341
 O         0.358874         0.188598         0.365812
 C        -0.716246         1.100311         0.673108
 C        -2.194117         0.896751         0.390362
 C        -1.521696         2.163822        -0.114164
 C        -1.323499         3.304122         0.866876
 C        -0.399093         4.461808         0.362745
 O         0.813404         3.879409         0.164798
 C         1.050515         3.032851         1.282540
 C        -0.336245         2.348593         1.570916
 H         0.356724        -0.350356         1.085216
 H        -2.298281         0.258700        -0.485519
 H        -3.074216         0.833171         1.116527
 H        -1.567083         2.211442        -1.159451
 H        -2.271651         3.772796         1.373024
 H        -0.621061         5.053682        -0.510356
 H        -0.152020         5.143599         1.252072
 H         1.982287         2.390937         1.064823
 H         1.338038         3.585731         2.262762
 H        -0.555969         2.082991         2.605893
