19
Iteration:  2671
 O         0.289792         0.347093         0.326971
 C        -0.676776         1.210348         0.668263
 C        -2.048379         0.865387         0.546783
 C        -1.663754         2.100165        -0.222676
 C        -1.389962         3.310628         0.800120
 C        -0.344340         4.366069         0.196628
 O         0.960579         3.828277         0.278183
 C         0.990639         2.969960         1.428213
 C        -0.427838         2.322654         1.608907
 H         1.025445         0.686730        -0.134966
 H        -2.186137        -0.140491         0.148742
 H        -2.641053         0.919502         1.544778
 H        -1.764481         2.117012        -1.293372
 H        -2.240878         3.875550         1.095912
 H        -0.626618         4.668582        -0.864615
 H        -0.506809         5.320109         0.814615
 H         1.660662         2.134146         1.160291
 H         1.148560         3.587035         2.341568
 H        -0.541244         2.053170         2.681984
