19
Iteration:  1756
 O         0.313612         0.246440         0.308427
 C        -0.725079         1.169954         0.709076
 C        -2.094452         0.901329         0.409318
 C        -1.587943         2.211810        -0.171992
 C        -1.337838         3.265526         0.851319
 C        -0.401676         4.391243         0.354105
 O         0.996133         3.812011         0.156477
 C         0.953898         2.999516         1.377533
 C        -0.396940         2.396224         1.616482
 H         0.236736        -0.495502         0.815864
 H        -2.242598         0.162421        -0.403522
 H        -2.963504         0.914770         1.068287
 H        -1.592043         2.335511        -1.223440
 H        -2.214946         3.768913         1.431088
 H        -0.580845         4.721924        -0.700190
 H        -0.538677         5.220671         1.123700
 H         1.964595         2.471344         1.272483
 H         1.168335         3.616185         2.226699
 H        -0.499122         2.092306         2.685024
