19
Iteration:  3199charge 0 multiplicity 1
 O         0.323354         0.275457         0.276519
 C        -0.627797         1.175014         0.582686
 C        -2.145193         0.898840         0.506459
 C        -1.543516         2.059296        -0.290869
 C        -1.352274         3.291119         0.600157
 C        -0.350380         4.467008         0.305761
 O         0.998086         3.947551         0.427805
 C         0.921865         2.932617         1.504294
 C        -0.500527         2.360840         1.572986
 H         0.513540        -0.266541         1.035497
 H        -2.317873         0.113410        -0.223680
 H        -2.720870         0.805537         1.437024
 H        -1.690925         1.863961        -1.341270
 H        -2.320354         3.799625         1.078267
 H        -0.567881         4.870917        -0.663601
 H        -0.484686         5.152777         1.169753
 H         1.651216         2.213035         1.270699
 H         1.291595         3.403966         2.482260
 H        -0.708635         2.037528         2.592460
