19
Iteration:  2165
 O         0.288722         0.364635         0.125686
 C        -0.678966         1.238417         0.749260
 C        -2.118437         0.827758         0.469147
 C        -1.589146         2.055462        -0.176763
 C        -1.370842         3.324858         0.855298
 C        -0.345111         4.292794         0.242544
 O         0.977206         3.848913         0.239691
 C         1.012060         3.005856         1.454853
 C        -0.453530         2.436577         1.707011
 H        -0.020098        -0.568185         0.487853
 H        -2.203184        -0.081448        -0.174096
 H        -2.903826         0.889555         1.241952
 H        -1.206008         2.156263        -1.239376
 H        -2.226059         3.657465         1.325368
 H        -0.518892         4.525669        -0.806102
 H        -0.457465         5.251679         0.745347
 H         1.782904         2.322679         1.326659
 H         1.153203         3.679041         2.300081
 H        -0.515963         2.347558         2.815064
