19
Iteration:  3616
 O         0.116600         0.085387         0.328312
 C        -0.693114         1.163084         0.615556
 C        -2.117687         0.870711         0.629855
 C        -1.539376         1.976526        -0.318581
 C        -1.279414         3.252946         0.564731
 C        -0.292667         4.326025         0.082920
 O         0.869574         4.325364         0.931731
 C         1.015798         2.939122         1.269788
 C        -0.344055         2.387574         1.483725
 H         1.081057         0.378958         0.375533
 H        -2.298814        -0.071871         0.046424
 H        -2.887306         1.161912         1.424986
 H        -1.742795         2.095010        -1.388737
 H        -2.202573         3.693059         1.093266
 H        -0.014801         4.078684        -0.990506
 H        -0.553703         5.385014         0.031776
 H         1.382463         2.286206         0.339190
 H         1.809449         2.816067         1.962856
 H        -0.744588         2.393489         2.525215
