19
Iteration:  2078
 O         0.249271         0.313224         0.196284
 C        -0.719706         1.195539         0.717616
 C        -2.137739         0.828284         0.545256
 C        -1.513970         2.054738        -0.214059
 C        -1.329293         3.274387         0.763527
 C        -0.363726         4.388103         0.233306
 O         0.987833         3.912954         0.331378
 C         0.973267         2.999602         1.396352
 C        -0.425795         2.430374         1.622728
 H         0.310586        -0.489086         0.674697
 H        -2.152374        -0.016208        -0.099126
 H        -2.792703         0.900638         1.460025
 H        -1.595411         2.182820        -1.327783
 H        -2.116580         3.739312         1.322924
 H        -0.510773         4.711895        -0.801146
 H        -0.580129         5.250936         0.941864
 H         1.497132         2.194293         1.100847
 H         1.526290         3.298491         2.329269
 H        -0.565756         2.334159         2.664812
