19
Iteration:   164charge 0 multiplicity 1
 O         0.465015         0.384031         0.215837
 C        -0.634570         1.296438         0.601867
 C        -2.099779         0.888186         0.598024
 C        -1.696691         2.176607        -0.144354
 C        -1.358262         3.328052         0.827796
 C        -0.395936         4.364232         0.217832
 O         0.823427         3.682128         0.196243
 C         1.008444         2.893886         1.457126
 C        -0.419503         2.371169         1.601725
 H         0.649532        -0.245353         0.996603
 H        -2.342466        -0.019326         0.080304
 H        -2.729762         1.095287         1.421590
 H        -1.706497         2.331378        -1.238953
 H        -2.173373         3.889945         1.414582
 H        -0.708615         4.650086        -0.724737
 H        -0.318882         5.357272         0.754451
 H         1.772191         2.184970         1.299572
 H         1.338570         3.477294         2.352205
 H        -0.629928         2.167607         2.609964
