19
Iteration:  1067charge 0 multiplicity 1
 O         0.360027         0.377674         0.089543
 C        -0.677222         1.207492         0.619715
 C        -2.110039         0.948787         0.687710
 C        -1.631717         2.137394        -0.174861
 C        -1.337844         3.286616         0.752300
 C        -0.446768         4.319134         0.147678
 O         0.960703         3.827737         0.347631
 C         1.013330         2.949529         1.483570
 C        -0.388393         2.339466         1.662022
 H         0.411583        -0.409657         0.569155
 H        -2.406151         0.039454         0.149815
 H        -2.619822         1.201296         1.551762
 H        -1.837049         2.252358        -1.268846
 H        -2.191137         3.650097         1.322328
 H        -0.540777         4.388550        -0.960661
 H        -0.554768         5.265984         0.675718
 H         1.711861         2.179501         1.305333
 H         1.275854         3.491139         2.416756
 H        -0.821601         2.170944         2.589974
