19
Iteration:    88
 O         0.311006         0.041925         0.284959
 C        -0.660952         1.145409         0.652328
 C        -2.122403         0.929355         0.591669
 C        -1.580013         2.160662        -0.207823
 C        -1.313556         3.296943         0.748408
 C        -0.479895         4.463569         0.322452
 O         0.913232         4.034003         0.258461
 C         1.012235         3.022079         1.316928
 C        -0.323226         2.320980         1.556272
 H         0.221417        -0.646022         0.943598
 H        -2.261922         0.022808         0.054207
 H        -2.777578         1.105291         1.440070
 H        -1.529945         2.129797        -1.283259
 H        -2.186611         3.652050         1.397805
 H        -0.753252         4.828923        -0.623162
 H        -0.538314         5.197895         1.145434
 H         1.791443         2.323669         1.120893
 H         1.188580         3.594784         2.232969
 H        -0.514992         2.281484         2.594525
