19
Iteration:   279charge 0 multiplicity 1
 O         0.313310         0.234688         0.144602
 C        -0.717370         1.105059         0.660164
 C        -2.183267         0.824015         0.598465
 C        -1.690662         2.050831        -0.126831
 C        -1.271672         3.266635         0.795738
 C        -0.341069         4.467784         0.186831
 O         1.021144         3.987530         0.299713
 C         0.989288         3.105508         1.438676
 C        -0.394901         2.334212         1.593637
 H         0.242024        -0.562106         0.565759
 H        -2.562373         0.020856        -0.029998
 H        -2.732575         0.958497         1.590977
 H        -1.562631         2.050798        -1.177178
 H        -2.107520         3.558857         1.372556
 H        -0.712767         4.837817        -0.850132
 H        -0.484084         5.282035         0.870206
 H         1.862910         2.412639         1.310855
 H         1.272719         3.657500         2.300787
 H        -0.636166         2.155580         2.658978
