19
Iteration:   768charge 0 multiplicity 1
 O         0.212111         0.510825         0.113821
 C        -0.703329         1.203086         0.761191
 C        -2.079248         0.811393         0.540839
 C        -1.632253         2.056259        -0.134020
 C        -1.360791         3.322634         0.735705
 C        -0.375679         4.313687         0.203273
 O         0.991051         3.744150         0.256622
 C         1.052488         3.028492         1.487382
 C        -0.361401         2.413636         1.704503
 H         0.241360        -0.514776         0.309714
 H        -2.140658         0.016432        -0.316882
 H        -2.846949         0.583827         1.387943
 H        -1.617540         2.000899        -1.193150
 H        -2.228264         3.801351         1.278369
 H        -0.666653         4.497829        -0.812421
 H        -0.424763         5.255431         0.752811
 H         2.004952         2.263987         1.522282
 H         1.222583         3.726504         2.323375
 H        -0.661217         2.278898         2.719814
