19
Iteration:  4790
 O         0.314722         0.269534         0.280506
 C        -0.679335         1.148562         0.571598
 C        -2.220796         0.878413         0.534484
 C        -1.628855         2.007569        -0.227731
 C        -1.273160         3.191050         0.655829
 C        -0.318184         4.323151         0.024953
 O         0.988250         4.216956         0.726024
 C         0.964495         2.979361         1.478537
 C        -0.433379         2.342054         1.515003
 H        -0.057231        -0.559683        -0.187037
 H        -2.481684        -0.129922         0.119590
 H        -2.613606         1.115691         1.491039
 H        -1.786977         1.998266        -1.335630
 H        -1.975443         3.719060         1.219251
 H        -0.111365         4.287190        -1.040945
 H        -0.691017         5.265594         0.381376
 H         1.779777         2.375571         1.035903
 H         1.331109         3.402967         2.464874
 H        -0.557844         2.085651         2.618367
