19
Iteration:  1760
 O         0.274239         0.274841         0.289191
 C        -0.701604         1.168635         0.724232
 C        -2.107906         0.879212         0.411358
 C        -1.544277         2.220247        -0.162168
 C        -1.348123         3.256392         0.832581
 C        -0.398075         4.371518         0.335947
 O         0.976847         3.819583         0.187268
 C         0.990264         3.007739         1.361766
 C        -0.403708         2.394806         1.613173
 H         0.247542        -0.636436         0.825150
 H        -2.191899         0.114391        -0.356117
 H        -3.016462         0.935086         1.168081
 H        -1.577625         2.238736        -1.264825
 H        -2.139030         3.760753         1.385167
 H        -0.600401         4.821543        -0.682662
 H        -0.475145         5.121302         1.148870
 H         1.868517         2.420053         1.267601
 H         1.169870         3.699507         2.311433
 H        -0.529113         2.204134         2.654882
