19
Iteration:  4538charge 0 multiplicity 1
 O         0.213597         0.035370         0.355600
 C        -0.662939         1.132238         0.584872
 C        -2.079594         0.917751         0.600444
 C        -1.599787         2.041058        -0.360922
 C        -1.291842         3.270938         0.553751
 C        -0.351158         4.341973         0.144454
 O         0.928365         4.274633         0.820100
 C         0.969369         2.988677         1.425969
 C        -0.396200         2.344656         1.445495
 H         0.780665         0.150728        -0.428825
 H        -2.621887         0.145408         0.140163
 H        -2.740911         1.298595         1.442352
 H        -1.698192         1.951694        -1.420527
 H        -2.176119         3.747637         1.045949
 H        -0.085527         4.347595        -0.987084
 H        -0.656321         5.300268         0.496582
 H         1.759572         2.315406         0.850487
 H         1.502080         3.032778         2.402294
 H        -0.781777         2.080154         2.430131
