19
Iteration:  2919
 O         0.351710         0.311345         0.426111
 C        -0.706065         1.203794         0.557869
 C        -2.228777         0.821819         0.484529
 C        -1.650540         2.123165        -0.239587
 C        -1.377597         3.260600         0.764575
 C        -0.397571         4.337216         0.221337
 O         1.017555         3.938906         0.402372
 C         1.089982         3.009179         1.419564
 C        -0.403297         2.309377         1.600475
 H         0.515334         0.236262        -0.528125
 H        -2.439548        -0.009304        -0.205626
 H        -2.910432         1.144318         1.252391
 H        -1.716377         2.220935        -1.359328
 H        -2.343217         3.750202         1.236576
 H        -0.368225         4.451409        -0.895535
 H        -0.573315         5.280982         0.796997
 H         1.897552         2.352526         1.251677
 H         1.426696         3.491277         2.370599
 H        -0.696329         2.068190         2.621804
