19
Iteration:  1962
 O         0.338880         0.384358         0.231092
 C        -0.643765         1.200079         0.740971
 C        -2.212776         1.021139         0.481495
 C        -1.441250         2.087078        -0.245396
 C        -1.344623         3.261276         0.767507
 C        -0.454127         4.310126         0.250177
 O         0.840545         3.772235         0.304967
 C         1.031980         2.942220         1.378405
 C        -0.338040         2.409240         1.699419
 H         0.178024        -0.402191         0.693859
 H        -2.598298         0.125877         0.077415
 H        -2.953673         1.440799         1.194275
 H        -1.324116         2.186387        -1.330716
 H        -2.336245         3.501065         1.241113
 H        -0.574146         4.522553        -0.831013
 H        -0.467643         5.298754         0.834748
 H         1.938203         2.194118         1.252746
 H         1.393697         3.603313         2.167141
 H        -0.682674         2.024590         2.739951
