19
Iteration:  3916
 O         0.203436         0.105674         0.372837
 C        -0.644594         1.190658         0.667158
 C        -2.164059         0.937992         0.336335
 C        -1.509123         2.122974        -0.263965
 C        -1.325553         3.255193         0.629714
 C        -0.351519         4.295259         0.081993
 O         0.846860         4.260726         0.858617
 C         1.043706         2.917753         1.295868
 C        -0.293495         2.352733         1.586839
 H        -0.298140        -0.787068         0.495235
 H        -2.372520         0.058075        -0.271075
 H        -2.865115         1.011775         1.108735
 H        -1.368338         2.127297        -1.370497
 H        -2.295968         3.726582         1.165916
 H        -0.164685         4.154747        -1.021581
 H        -0.674713         5.385925         0.151988
 H         1.610601         2.256302         0.556365
 H         1.546462         2.944814         2.299739
 H        -0.377067         2.176321         2.688099
