19
Iteration:  1412
 O         0.144664         0.225082         0.117541
 C        -0.663937         1.162925         0.756209
 C        -2.128756         0.963399         0.588450
 C        -1.461618         2.016690        -0.205859
 C        -1.321168         3.191576         0.720234
 C        -0.474588         4.362658         0.247623
 O         0.974697         4.002882         0.376093
 C         1.037011         3.038243         1.404315
 C        -0.308630         2.427277         1.619404
 H        -0.010523        -0.761151         0.412338
 H        -2.434490         0.062277         0.114574
 H        -2.737689         1.281861         1.400529
 H        -1.345587         2.016652        -1.289883
 H        -2.323870         3.567166         1.121367
 H        -0.507919         4.582322        -0.830185
 H        -0.681955         5.257579         0.834227
 H         1.872785         2.346657         1.243346
 H         1.358283         3.579315         2.316236
 H        -0.626674         2.244637         2.701693
