19
Iteration:  2414charge 0 multiplicity 1
 O         0.276110         0.249996         0.235844
 C        -0.693042         1.204120         0.700269
 C        -2.172612         0.874815         0.621822
 C        -1.530295         2.003253        -0.233646
 C        -1.377134         3.240331         0.717812
 C        -0.324524         4.418800         0.284650
 O         0.960518         3.823503         0.291856
 C         0.963549         3.109825         1.480615
 C        -0.335950         2.384061         1.590688
 H         0.432068         0.521947        -0.770185
 H        -2.345761        -0.065175         0.087545
 H        -2.964465         1.165524         1.204855
 H        -1.698993         2.093954        -1.290290
 H        -2.278429         3.744545         1.312263
 H        -0.515159         4.830745        -0.674485
 H        -0.375422         5.223297         1.036619
 H         1.822837         2.369984         1.363022
 H         1.174579         3.784488         2.313531
 H        -0.782903         2.096706         2.521259
