19
Iteration:   467charge 0 multiplicity 1
 O         0.292754         0.345227         0.061734
 C        -0.656116         1.155204         0.617240
 C        -2.096906         0.909657         0.633509
 C        -1.562512         2.171167        -0.113200
 C        -1.317634         3.358415         0.816767
 C        -0.443517         4.259130         0.061091
 O         0.932292         3.879076         0.322836
 C         0.976761         2.967650         1.533501
 C        -0.362986         2.312778         1.700204
 H         0.376876        -0.415668         0.532292
 H        -2.546086         0.149267         0.069709
 H        -2.498300         0.942444         1.632982
 H        -1.863409         2.147889        -1.152991
 H        -2.153761         3.763465         1.289426
 H        -0.668280         4.335444        -1.048257
 H        -0.496696         5.341518         0.383071
 H         1.876829         2.413527         1.496005
 H         1.013329         3.740718         2.443077
 H        -0.472888         2.159591         2.695235
