19
Iteration:  3408charge 0 multiplicity 1
 O         0.288663         0.192442         0.251603
 C        -0.657913         1.197423         0.596873
 C        -2.086873         0.893467         0.636929
 C        -1.571303         2.106838        -0.291414
 C        -1.344713         3.271933         0.601185
 C        -0.408520         4.365579         0.161060
 O         0.970195         3.942906         0.510709
 C         0.978980         2.979349         1.577217
 C        -0.470783         2.390598         1.564321
 H         0.931742         0.682393        -0.412808
 H        -2.378189         0.124677        -0.104497
 H        -2.701524         1.115599         1.541213
 H        -1.644139         1.946252        -1.382149
 H        -2.205363         3.712605         0.995262
 H        -0.298939         4.549237        -0.920903
 H        -0.692902         5.326270         0.724667
 H         1.728066         2.189509         1.450392
 H         1.283420         3.356071         2.682203
 H        -0.820938         2.139377         2.572636
