19
Iteration:   873charge 0 multiplicity 1
 O         0.237335         0.226372         0.179048
 C        -0.640925         1.163661         0.711136
 C        -2.187356         0.941452         0.565081
 C        -1.502743         2.025650        -0.209968
 C        -1.278181         3.231678         0.796687
 C        -0.454973         4.446167         0.242813
 O         0.919911         3.938898         0.261033
 C         1.044059         3.087188         1.431317
 C        -0.282999         2.321300         1.682070
 H        -0.248580        -0.676122         0.140373
 H        -2.491910         0.091434        -0.081449
 H        -2.986699         1.243505         1.180791
 H        -1.395275         1.978043        -1.274953
 H        -2.234072         3.562137         1.297297
 H        -0.862313         4.617567        -0.786105
 H        -0.597449         5.368689         0.788620
 H         1.935637         2.511689         1.365842
 H         1.188218         3.731240         2.363354
 H        -0.567816         2.096928         2.822836
