19
Iteration:  2146charge 0 multiplicity 1
 O         0.243790         0.391217         0.137583
 C        -0.648213         1.163405         0.729108
 C        -2.120582         0.896518         0.504987
 C        -1.460448         2.147199        -0.160317
 C        -1.290028         3.288025         0.735572
 C        -0.453118         4.378084         0.202165
 O         0.861186         3.707752         0.246883
 C         0.993473         3.050350         1.538872
 C        -0.331630         2.382672         1.725514
 H         0.294052        -0.520083         0.654582
 H        -2.189243         0.048545        -0.270551
 H        -2.933410         0.913264         1.276858
 H        -1.622445         2.219292        -1.248689
 H        -2.308921         3.634107         1.189817
 H        -0.675649         4.743158        -0.829991
 H        -0.310503         5.274342         0.882050
 H         1.758871         2.333867         1.320628
 H         1.386604         3.681009         2.376516
 H        -0.741403         2.187605         2.671809
