19
Iteration:  4964
 O         0.420814         0.360803         0.425605
 C        -0.702965         1.252530         0.708320
 C        -2.130874         0.883713         0.281471
 C        -1.384448         2.183183        -0.283511
 C        -1.365283         3.263899         0.796042
 C        -0.439803         4.368075         0.307080
 O         0.856356         3.734882         0.204370
 C         0.948381         2.963410         1.531030
 C        -0.453492         2.359967         1.732721
 H         0.111522        -0.209979        -0.293409
 H        -2.221803         0.083574        -0.382020
 H        -2.874236         0.842845         1.011132
 H        -1.456685         2.318210        -1.343746
 H        -2.385415         3.583134         1.220226
 H        -0.526744         4.846113        -0.754957
 H        -0.414749         5.376303         0.846523
 H         1.642941         2.164181         1.310974
 H         1.361832         3.757348         2.178306
 H        -0.715051         2.180600         2.748894
