19
Iteration:  1024
 O         0.213412         0.320424         0.079738
 C        -0.655558         1.197811         0.643724
 C        -2.183878         0.863768         0.654895
 C        -1.651474         2.010930        -0.193194
 C        -1.300683         3.192907         0.715376
 C        -0.405900         4.383565         0.237011
 O         1.052319         3.889669         0.309945
 C         1.044086         3.119692         1.537837
 C        -0.355581         2.379563         1.585171
 H         0.346768        -0.439075         0.734739
 H        -2.259899        -0.117432         0.133627
 H        -2.815391         0.999919         1.462245
 H        -1.870494         2.077485        -1.275441
 H        -2.142116         3.741847         1.204863
 H        -0.601491         4.797847        -0.788630
 H        -0.546170         5.128964         1.060692
 H         1.825802         2.461664         1.512304
 H         1.083290         3.789506         2.458333
 H        -0.549449         2.193439         2.570463
