19
Iteration:  3002
 O         0.277443         0.202626         0.212848
 C        -0.728185         1.158322         0.571777
 C        -2.194905         0.973434         0.397423
 C        -1.522309         2.128393        -0.233733
 C        -1.341421         3.246069         0.812500
 C        -0.396236         4.304095         0.272192
 O         0.954165         3.817140         0.263949
 C         0.985397         3.203489         1.591396
 C        -0.330654         2.286390         1.676119
 H         0.970348         0.517009         0.731355
 H        -2.458862         0.067082        -0.158964
 H        -2.842001         1.072698         1.283844
 H        -1.440264         2.140694        -1.350607
 H        -2.264578         3.605749         1.194222
 H        -0.464321         4.645859        -0.737280
 H        -0.418380         5.257012         0.870621
 H         1.866623         2.490894         1.825326
 H         0.744983         3.960412         2.375575
 H        -0.450764         2.087153         2.766245
