19
Iteration:  3612
 O         0.111358         0.108370         0.334282
 C        -0.685477         1.172866         0.630092
 C        -2.120455         0.856599         0.624363
 C        -1.541457         1.990800        -0.341097
 C        -1.261061         3.250223         0.582442
 C        -0.277337         4.326083         0.059642
 O         0.863723         4.332491         0.945408
 C         1.050473         2.902623         1.209734
 C        -0.383895         2.386532         1.507840
 H         1.040272         0.384966         0.469643
 H        -2.278944        -0.035732         0.052658
 H        -2.915291         1.043467         1.329795
 H        -1.818084         2.127211        -1.383375
 H        -2.161688         3.608888         1.115047
 H        -0.043606         3.978668        -0.936287
 H        -0.677700         5.316834         0.053275
 H         1.347206         2.342044         0.374317
 H         1.745683         2.917085         2.121172
 H        -0.606405         2.415732         2.566996
