19
Iteration:   695charge 0 multiplicity 1
 O         0.237758         0.316892         0.172054
 C        -0.712441         1.200649         0.762775
 C        -2.103704         0.875953         0.522277
 C        -1.625272         2.061347        -0.214310
 C        -1.316236         3.280206         0.812617
 C        -0.394582         4.391536         0.307873
 O         0.947702         3.889772         0.246498
 C         1.055787         2.976539         1.384312
 C        -0.347950         2.423955         1.615602
 H         0.296087        -0.532961         0.802750
 H        -2.204313        -0.006039        -0.171661
 H        -2.771222         0.890887         1.344290
 H        -1.505703         2.019630        -1.312253
 H        -2.281582         3.564287         1.337542
 H        -0.673764         4.640546        -0.755805
 H        -0.521489         5.352199         0.934122
 H         1.738585         2.216497         1.213314
 H         1.510253         3.454780         2.342466
 H        -0.611465         2.350587         2.757115
