19
Iteration:  2496
 O         0.278934         0.162605         0.266837
 C        -0.654747         1.247838         0.671163
 C        -2.148628         0.887694         0.455820
 C        -1.652288         2.105897        -0.185508
 C        -1.343574         3.287869         0.842768
 C        -0.372842         4.368833         0.232025
 O         0.957254         3.775523         0.219878
 C         0.937245         3.091767         1.462326
 C        -0.296797         2.386906         1.687017
 H         1.087176         0.622801        -0.180488
 H        -2.085335         0.056973        -0.323824
 H        -2.787928         0.929088         1.402917
 H        -1.843830         2.385421        -1.251990
 H        -2.322617         3.744497         1.334480
 H        -0.691360         4.640860        -0.825254
 H        -0.344292         5.246199         0.911833
 H         1.779629         2.528513         1.639438
 H         1.011095         3.881124         2.291441
 H        -0.592906         2.192019         2.715642
