19
Iteration:  2104
 O         0.357143         0.343563         0.285609
 C        -0.671904         1.214591         0.574342
 C        -2.155550         0.949662         0.564385
 C        -1.615317         2.124685        -0.221983
 C        -1.362828         3.226944         0.720455
 C        -0.350287         4.413808         0.290953
 O         0.898907         3.805402         0.209052
 C         1.014923         2.953686         1.513031
 C        -0.378525         2.311763         1.556260
 H         0.584421        -0.180476         1.079139
 H        -2.393537         0.140118        -0.188743
 H        -2.617958         1.029263         1.545860
 H        -2.055535         2.205529        -1.214527
 H        -2.203372         3.734216         1.374650
 H        -0.540178         4.918773        -0.678779
 H        -0.458397         5.108918         1.153992
 H         1.989102         2.303698         1.525409
 H         1.130776         3.653905         2.391038
 H        -0.685672         2.131618         2.603921
