19
Iteration:  2500charge 0 multiplicity 1
 O         0.274537         0.176226         0.241764
 C        -0.626206         1.244935         0.690988
 C        -2.152789         0.885782         0.472533
 C        -1.631884         2.102653        -0.195087
 C        -1.363793         3.343255         0.824928
 C        -0.371721         4.366698         0.218097
 O         0.930998         3.792259         0.188013
 C         0.936062         3.111166         1.507969
 C        -0.320104         2.329382         1.710813
 H         0.997569         0.506127        -0.228320
 H        -2.193897         0.001598        -0.189245
 H        -2.729750         0.926862         1.386976
 H        -1.599845         2.258933        -1.264000
 H        -2.182757         3.688494         1.264806
 H        -0.624282         4.690228        -0.756361
 H        -0.296773         5.228233         0.946697
 H         1.812640         2.349192         1.646594
 H         1.125606         3.845920         2.277939
 H        -0.626575         2.165855         2.762767
