19
Iteration:  1988charge 0 multiplicity 1
 O         0.257079         0.206894         0.226665
 C        -0.666979         1.151678         0.678123
 C        -2.114401         0.913996         0.591367
 C        -1.502514         2.091894        -0.261991
 C        -1.284380         3.293865         0.712310
 C        -0.394309         4.451082         0.340457
 O         0.944212         3.870478         0.214890
 C         0.965007         3.054693         1.440607
 C        -0.408597         2.386901         1.646490
 H         0.039557        -0.573799         0.746385
 H        -2.418232         0.080255        -0.115268
 H        -2.890955         1.015957         1.334387
 H        -1.465982         1.975599        -1.345010
 H        -2.220969         3.546186         1.232793
 H        -0.668174         4.911977        -0.629499
 H        -0.318257         5.204228         1.157752
 H         1.790377         2.322946         1.428742
 H         1.206059         3.849127         2.235637
 H        -0.784823         2.074374         2.602566
