19
Iteration:   662charge 0 multiplicity 1
 O         0.234175         0.215849         0.218834
 C        -0.703173         1.138799         0.739250
 C        -2.143282         0.950538         0.543956
 C        -1.469205         2.049555        -0.199129
 C        -1.303222         3.257393         0.791608
 C        -0.437180         4.473345         0.290266
 O         0.919750         4.011875         0.304181
 C         0.995508         2.939467         1.306358
 C        -0.336456         2.348609         1.623859
 H         0.303704        -0.589054         0.705055
 H        -2.436188         0.101155        -0.084976
 H        -2.721360         1.212415         1.399647
 H        -1.255367         1.949840        -1.249371
 H        -2.297709         3.475963         1.296537
 H        -0.778348         4.583394        -0.781170
 H        -0.474938         5.478950         0.841237
 H         1.618772         2.239214         0.847801
 H         1.501637         3.429113         2.224172
 H        -0.548940         2.360454         2.766549
