19
Iteration:   930charge 0 multiplicity 1
 O         0.379739         0.303469         0.400215
 C        -0.691048         1.143302         0.682910
 C        -2.197737         0.816055         0.469766
 C        -1.600396         2.099308        -0.184117
 C        -1.358232         3.347661         0.785020
 C        -0.363104         4.433006         0.430600
 O         0.936067         3.883525         0.220362
 C         1.019307         2.990536         1.224234
 C        -0.414679         2.377472         1.557331
 H         0.202361        -0.642912         0.492167
 H        -2.366153         0.063613        -0.366170
 H        -2.927972         0.740593         1.338409
 H        -1.552722         2.264604        -1.288775
 H        -2.297809         3.747264         1.106031
 H        -0.650868         5.082648        -0.388643
 H        -0.223572         4.974947         1.369527
 H         1.881696         2.240324         0.905268
 H         1.365834         3.616994         2.096769
 H        -0.600090         2.208448         2.706393
