19
Iteration:  1217
 O         0.215644         0.198961         0.237671
 C        -0.632025         1.193917         0.632991
 C        -2.155174         1.018901         0.570912
 C        -1.466297         2.066225        -0.243697
 C        -1.415393         3.263335         0.769100
 C        -0.521910         4.336884         0.252174
 O         0.952970         4.043058         0.359909
 C         1.116011         2.980531         1.405649
 C        -0.275602         2.286557         1.600572
 H         0.024948        -0.568656         0.751975
 H        -2.639329         0.136922         0.214916
 H        -2.727057         1.368058         1.409243
 H        -1.375538         2.162980        -1.375900
 H        -2.379857         3.450118         1.281039
 H        -0.750485         4.400377        -0.733539
 H        -0.838753         5.343903         0.612241
 H         1.887703         2.272488         0.917141
 H         1.501712         3.459826         2.330995
 H        -0.580758         2.123830         2.666278
