19
Iteration:  3525charge 0 multiplicity 1
 O         0.122968         0.006282         0.286426
 C        -0.665083         1.030493         0.681008
 C        -2.181767         0.936802         0.624948
 C        -1.535613         1.935347        -0.309798
 C        -1.269723         3.204242         0.480351
 C        -0.342106         4.424884         0.145276
 O         0.976467         4.344890         0.782491
 C         1.016593         3.038430         1.405773
 C        -0.377054         2.375770         1.481318
 H         0.899525         0.305098        -0.352216
 H        -2.645054         0.022329         0.258467
 H        -2.658330         1.362473         1.514486
 H        -1.560217         1.786161        -1.413340
 H        -2.279998         3.554557         0.930868
 H        -0.248286         4.635280        -0.949937
 H        -0.883218         5.217494         0.549931
 H         1.773296         2.474306         0.873222
 H         1.491927         3.169080         2.349058
 H        -0.616991         2.278216         2.537872
