19
Iteration:  1427
 O         0.144604         0.100888         0.128674
 C        -0.692022         1.113294         0.688609
 C        -2.174822         0.837009         0.588283
 C        -1.456468         2.064172        -0.182236
 C        -1.225732         3.314374         0.740388
 C        -0.373880         4.434041         0.222648
 O         0.933470         4.092595         0.320341
 C         1.018270         3.108976         1.416590
 C        -0.388212         2.316489         1.677533
 H         0.207154        -0.623500         0.820477
 H        -2.343800        -0.055100        -0.071208
 H        -2.999575         0.976728         1.312975
 H        -1.518289         2.117351        -1.263618
 H        -2.124467         3.729591         1.248154
 H        -0.586578         4.736809        -0.778413
 H        -0.512714         5.346179         0.918833
 H         1.859040         2.409100         1.150702
 H         1.372514         3.485222         2.438336
 H        -0.478994         2.297365         2.700770
