19
Iteration:   539charge 0 multiplicity 1
 O         0.396969         0.306281         0.186881
 C        -0.676653         1.189384         0.640515
 C        -2.117546         0.813852         0.529400
 C        -1.631957         2.138217        -0.130099
 C        -1.375080         3.426651         0.865347
 C        -0.365436         4.408777         0.273172
 O         0.912873         3.741939         0.174014
 C         0.997450         2.955128         1.444001
 C        -0.426602         2.381733         1.601182
 H         0.521972        -0.247398         0.892162
 H        -2.377169        -0.098658        -0.022083
 H        -2.656689         0.871274         1.535293
 H        -1.847510         2.401017        -1.188987
 H        -2.259359         3.937406         1.437063
 H        -0.524637         4.713362        -0.766013
 H        -0.343396         5.385348         0.817470
 H         1.861034         2.218561         1.273788
 H         1.240135         3.668237         2.305193
 H        -0.808963         2.382281         2.737464
