19
Iteration:  3853
 O         0.251101         0.185415         0.352836
 C        -0.766729         1.169572         0.622673
 C        -2.202760         0.882022         0.603376
 C        -1.540207         1.989560        -0.320614
 C        -1.221762         3.274900         0.449338
 C        -0.205640         4.282185         0.070833
 O         0.845434         4.300996         1.089257
 C         0.982352         2.891546         1.247762
 C        -0.382933         2.386675         1.463036
 H        -0.091756        -0.231376        -0.471398
 H        -2.387178        -0.122689         0.285399
 H        -2.698271         1.224515         1.451077
 H        -1.695948         1.961843        -1.421365
 H        -2.102552         3.710323         0.787921
 H         0.159094         4.216092        -0.964823
 H        -0.710853         5.219955         0.158456
 H         1.562105         2.495411         0.450396
 H         1.713388         2.655637         2.029011
 H        -0.632764         2.356859         2.508562
