19
Iteration:  2971
 O         0.290335         0.276880         0.146863
 C        -0.645276         1.190938         0.629370
 C        -2.089442         0.915901         0.511012
 C        -1.537063         2.096674        -0.236559
 C        -1.355981         3.287708         0.717105
 C        -0.380979         4.386043         0.282887
 O         0.934825         3.817303         0.313798
 C         0.917061         3.028111         1.566413
 C        -0.407613         2.428899         1.613993
 H         0.397983        -0.343561         0.988826
 H        -2.190621        -0.034025        -0.017094
 H        -2.799090         0.929185         1.353654
 H        -1.526083         1.977090        -1.357926
 H        -2.228267         3.620787         1.136883
 H        -0.433490         4.810902        -0.689930
 H        -0.455583         5.248031         0.978652
 H         1.748922         2.107331         1.577022
 H         1.151394         3.679600         2.443233
 H        -0.665812         2.261862         2.684296
