19
Iteration:  1407charge 0 multiplicity 1
 O         0.162627         0.245343         0.138799
 C        -0.629381         1.188053         0.720516
 C        -2.134129         1.002731         0.607523
 C        -1.493868         1.994337        -0.213249
 C        -1.326733         3.192663         0.701408
 C        -0.513436         4.367534         0.246749
 O         0.965852         3.974911         0.359184
 C         1.060338         3.031834         1.443964
 C        -0.318757         2.412253         1.612266
 H         0.000920        -0.613890         0.359823
 H        -2.503797         0.109632         0.040698
 H        -2.820420         1.294629         1.491955
 H        -1.275618         2.010749        -1.281549
 H        -2.266236         3.382185         1.164150
 H        -0.431805         4.585678        -0.864614
 H        -0.668881         5.319887         0.809025
 H         1.852348         2.262113         1.312328
 H         1.476240         3.447109         2.395962
 H        -0.536634         2.184199         2.660880
