19
Iteration:  4713charge 0 multiplicity 1
 O         0.200554         0.182803         0.394591
 C        -0.716690         1.181745         0.612115
 C        -2.194985         0.848985         0.508762
 C        -1.621685         2.065856        -0.248704
 C        -1.233177         3.143100         0.691714
 C        -0.274192         4.181718        -0.043642
 O         0.794604         4.345694         0.944516
 C         1.112929         2.994523         1.288133
 C        -0.296704         2.340608         1.515780
 H         0.087092        -0.050513        -0.494646
 H        -2.527462         0.112713        -0.280373
 H        -3.028266         1.074262         1.151768
 H        -1.721663         2.356999        -1.327540
 H        -1.966168         3.720023         1.134929
 H         0.158472         3.880978        -0.998189
 H        -0.706355         5.168616        -0.227089
 H         1.605535         2.635339         0.438841
 H         1.781653         3.045420         2.150112
 H        -0.307031         2.303717         2.662863
