19
Iteration:  1348
 O         0.340365         0.432411         0.214621
 C        -0.671855         1.248708         0.645775
 C        -2.152307         0.762220         0.448620
 C        -1.678942         2.102527        -0.156548
 C        -1.328547         3.360435         0.808145
 C        -0.301237         4.367521         0.260926
 O         0.870812         3.665544         0.201454
 C         1.069602         3.037434         1.466181
 C        -0.425657         2.405177         1.713338
 H         0.317902        -0.435730         0.826222
 H        -2.112498        -0.072322        -0.191469
 H        -2.791358         0.685714         1.269319
 H        -1.829071         2.385873        -1.215799
 H        -2.237753         3.895720         1.242251
 H        -0.466635         4.711636        -0.710634
 H        -0.306453         5.278110         0.995176
 H         1.881824         2.281141         1.374485
 H         1.174534         3.789564         2.266700
 H        -0.532521         2.276409         2.731083
