19
Iteration:  2589charge 0 multiplicity 1
 O         0.288566         0.213777         0.241619
 C        -0.622409         1.195806         0.624215
 C        -2.075176         0.816102         0.570576
 C        -1.730789         2.237603        -0.190386
 C        -1.413011         3.283845         0.763924
 C        -0.384512         4.328572         0.179518
 O         0.971545         3.818084         0.301005
 C         1.010072         3.067562         1.468255
 C        -0.398584         2.372768         1.686707
 H         1.161129         0.391746         0.082955
 H        -2.249652         0.072723        -0.159745
 H        -2.782081         0.836208         1.365601
 H        -1.816470         2.322094        -1.304326
 H        -2.155007         3.849702         1.196190
 H        -0.461482         4.440929        -0.886230
 H        -0.512346         5.333647         0.677220
 H         1.980587         2.373798         1.471085
 H         1.211257         3.676755         2.347153
 H        -0.559641         2.330348         2.785184
