19
Iteration:  2352
 O         0.354637         0.374704         0.301658
 C        -0.677543         1.183951         0.648653
 C        -2.166249         0.874780         0.564821
 C        -1.549400         2.166525        -0.225517
 C        -1.323728         3.248209         0.750815
 C        -0.432732         4.304941         0.216885
 O         0.963236         3.855612         0.284955
 C         1.012945         3.028089         1.442685
 C        -0.408130         2.304325         1.693228
 H        -0.118691        -0.308077        -0.335022
 H        -2.422322         0.071893        -0.140019
 H        -3.000940         1.092196         1.303163
 H        -1.632322         2.312657        -1.282677
 H        -2.190132         3.658721         1.126361
 H        -0.520345         4.744992        -0.820911
 H        -0.533382         5.187516         0.908775
 H         1.668469         2.297410         1.091551
 H         1.433686         3.498397         2.381321
 H        -0.613629         2.203308         2.778216
