19
Iteration:  4936charge 0 multiplicity 1
 O         0.361258         0.278626         0.357811
 C        -0.697839         1.182636         0.710640
 C        -2.065337         0.935399         0.272810
 C        -1.434843         2.239727        -0.213410
 C        -1.390492         3.272108         0.838628
 C        -0.465151         4.307478         0.269070
 O         0.891431         3.743858         0.227362
 C         0.905991         3.090686         1.528965
 C        -0.379748         2.346993         1.641089
 H        -0.147523        -0.481777         0.230870
 H        -2.047270         0.266527        -0.671817
 H        -2.962972         0.807076         1.023611
 H        -1.125261         2.362148        -1.270052
 H        -2.300705         3.564292         1.319734
 H        -0.544423         4.552640        -0.755856
 H        -0.394935         5.239049         0.828261
 H         1.864075         2.571156         1.802487
 H         1.044581         3.900855         2.284289
 H        -0.488048         2.127722         2.763716
