19
Iteration:  1568
 O         0.398913         0.343730         0.178310
 C        -0.661007         1.212592         0.549424
 C        -2.112715         0.939687         0.662840
 C        -1.582340         2.136537        -0.175812
 C        -1.357805         3.349638         0.805986
 C        -0.347300         4.365601         0.257987
 O         0.957970         3.723194         0.268036
 C         0.896170         3.011886         1.491570
 C        -0.453604         2.353533         1.559347
 H         0.245097        -0.524903         0.361756
 H        -2.401852         0.077139         0.140073
 H        -2.555903         1.146751         1.598548
 H        -1.728519         2.207804        -1.303329
 H        -2.360531         3.635202         1.245004
 H        -0.573416         4.503902        -0.738275
 H        -0.339550         5.308715         0.815908
 H         1.818725         2.371077         1.423972
 H         0.985220         3.547764         2.417189
 H        -0.759138         1.996970         2.564174
