19
Iteration:  3530charge 0 multiplicity 1
 O         0.111516         0.013433         0.297191
 C        -0.627368         1.057156         0.662747
 C        -2.181655         0.942819         0.606959
 C        -1.522692         1.900876        -0.336706
 C        -1.253363         3.232059         0.523005
 C        -0.353959         4.422030         0.124196
 O         0.947775         4.334809         0.801799
 C         1.024395         2.990483         1.369420
 C        -0.375187         2.396298         1.498696
 H         0.762071         0.320348        -0.277803
 H        -2.522425        -0.049413         0.277509
 H        -2.641596         1.298984         1.558341
 H        -1.731169         1.838371        -1.392040
 H        -2.186183         3.564801         0.850465
 H        -0.373145         4.611604        -0.966537
 H        -0.863511         5.409684         0.516819
 H         1.850640         2.329006         0.948423
 H         1.471104         3.136675         2.431081
 H        -0.629537         2.442044         2.596409
