19
Iteration:  1275charge 0 multiplicity 1
 O         0.265296         0.309002         0.212279
 C        -0.672033         1.318976         0.578329
 C        -2.118087         0.791650         0.557146
 C        -1.720825         2.059917        -0.239200
 C        -1.331422         3.276499         0.782310
 C        -0.313268         4.328709         0.296210
 O         1.007487         3.861280         0.240070
 C         0.971252         3.063187         1.449261
 C        -0.347952         2.396360         1.648342
 H         0.221756        -0.356712         0.991121
 H        -2.073370        -0.228008         0.130275
 H        -2.680352         0.884711         1.489443
 H        -1.956261         2.245237        -1.273882
 H        -2.187442         3.652412         1.220894
 H        -0.534022         4.800664        -0.698808
 H        -0.261570         5.096203         1.047608
 H         1.731672         2.287006         1.404043
 H         1.148766         3.730787         2.368403
 H        -0.772038         2.116362         2.691353
