19
Iteration:  2738charge 0 multiplicity 1
 O         0.133276         0.104584         0.230908
 C        -0.605298         1.205943         0.651051
 C        -2.048954         0.882454         0.550374
 C        -1.577021         2.074510        -0.197573
 C        -1.285204         3.272688         0.694969
 C        -0.392188         4.410878         0.293115
 O         0.907896         3.836984         0.235154
 C         0.943452         3.167451         1.523902
 C        -0.372736         2.380765         1.596625
 H         1.078623         0.532804         0.300297
 H        -2.221155        -0.119803         0.135138
 H        -2.538858         0.989801         1.565707
 H        -1.672519         2.209809        -1.294584
 H        -2.099194         3.703332         1.240025
 H        -0.589209         4.801454        -0.703066
 H        -0.337582         5.291775         1.005164
 H         1.977685         2.501941         1.458715
 H         1.048353         3.947964         2.340803
 H        -0.648882         2.100725         2.627145
