19
Iteration:   615charge 0 multiplicity 1
 O         0.267585         0.071566         0.385722
 C        -0.678203         1.185214         0.597371
 C        -2.054533         0.869539         0.578089
 C        -1.598589         2.144255        -0.258250
 C        -1.298759         3.309506         0.790056
 C        -0.437187         4.523450         0.380716
 O         0.924315         3.946678         0.232238
 C         1.037738         3.037400         1.335500
 C        -0.365661         2.338827         1.480069
 H        -0.225337        -0.836728         0.551890
 H        -2.168270        -0.015904        -0.045383
 H        -2.742606         1.097223         1.467178
 H        -1.813228         2.389497        -1.290684
 H        -2.200075         3.630459         1.391226
 H        -0.643130         5.025783        -0.552346
 H        -0.452606         5.241946         1.299775
 H         1.910286         2.338653         1.098398
 H         1.198085         3.694325         2.273113
 H        -0.576269         2.016557         2.560447
