19
Iteration:    32
 O         0.203759         0.250388         0.184788
 C        -0.660765         1.142929         0.753268
 C        -2.117330         0.750918         0.554549
 C        -1.513406         1.982335        -0.120968
 C        -1.301377         3.306900         0.754216
 C        -0.346899         4.489818         0.267882
 O         0.925797         4.022728         0.317629
 C         1.019074         2.983356         1.269566
 C        -0.404742         2.425663         1.648745
 H         0.298981        -0.610213         0.794886
 H        -2.355206        -0.059379        -0.142404
 H        -2.920450         1.079372         1.167928
 H        -1.749692         1.944526        -1.173487
 H        -2.245254         3.777089         1.246889
 H        -0.571837         4.851054        -0.701175
 H        -0.523111         5.473171         0.869993
 H         1.655987         2.192719         0.981206
 H         1.486664         3.325896         2.202568
 H        -0.630770         2.449777         2.675556
