19
Iteration:  1816
 O         0.297234         0.221829         0.205814
 C        -0.652000         1.179526         0.543536
 C        -2.218700         0.924415         0.626434
 C        -1.621900         2.130931        -0.212004
 C        -1.284014         3.251302         0.696394
 C        -0.353151         4.411302         0.244837
 O         0.956189         3.952462         0.358488
 C         1.023903         3.022502         1.464125
 C        -0.380771         2.296095         1.610647
 H         0.478283        -0.386901         1.016981
 H        -2.612622         0.098654        -0.030309
 H        -2.706096         1.076492         1.606179
 H        -1.887648         2.016763        -1.280587
 H        -2.138966         3.695490         1.144000
 H        -0.541028         4.634241        -0.798901
 H        -0.558111         5.375663         0.800325
 H         1.723817         2.288371         1.263864
 H         1.201616         3.575231         2.432509
 H        -0.559384         2.020094         2.612202
