19
Iteration:  1993
 O         0.247253         0.166233         0.236495
 C        -0.637603         1.169994         0.641872
 C        -2.111491         0.858730         0.552128
 C        -1.527866         2.063423        -0.237449
 C        -1.286654         3.248750         0.742108
 C        -0.345302         4.520347         0.356791
 O         0.920696         3.863047         0.240807
 C         0.981698         3.069514         1.438459
 C        -0.419192         2.428564         1.578596
 H        -0.030166        -0.596586         0.881116
 H        -2.449819         0.025156        -0.007375
 H        -2.891720         1.022619         1.352944
 H        -1.665958         2.094547        -1.335682
 H        -2.101968         3.764754         1.322622
 H        -0.515445         4.875375        -0.653249
 H        -0.356484         5.284104         1.140366
 H         1.865650         2.414332         1.347639
 H         1.007623         3.798490         2.269094
 H        -0.776001         2.306155         2.655585
