19
Iteration:  4624
 O         0.211790         0.117313         0.316828
 C        -0.702098         1.122920         0.661277
 C        -2.223839         0.936335         0.467775
 C        -1.544846         2.036155        -0.314257
 C        -1.215965         3.217799         0.658502
 C        -0.297648         4.314543         0.036502
 O         0.823824         4.355927         0.949533
 C         1.072400         2.928728         1.209072
 C        -0.354569         2.390795         1.514333
 H         0.404240        -0.327251         1.123385
 H        -2.271576         0.016728        -0.080124
 H        -2.706802         0.860140         1.439928
 H        -1.685136         2.063327        -1.379948
 H        -2.115314         3.541334         1.065903
 H        -0.015968         4.017743        -0.985721
 H        -0.831059         5.261218         0.108815
 H         1.404784         2.512780         0.333080
 H         1.690048         2.734319         2.175981
 H        -0.638312         2.171464         2.647942
