19
Iteration:  4921
 O         0.360977         0.228309         0.336465
 C        -0.595044         1.199333         0.604945
 C        -2.128496         0.916267         0.301387
 C        -1.492945         2.131450        -0.275961
 C        -1.325500         3.253605         0.800637
 C        -0.391156         4.400505         0.267433
 O         0.895495         3.781462         0.269800
 C         0.957913         3.125989         1.563089
 C        -0.447997         2.348714         1.734871
 H         0.153040        -0.727238         0.555432
 H        -2.342057         0.110568        -0.304771
 H        -2.865772         1.034841         1.032843
 H        -1.721738         2.374404        -1.300612
 H        -2.286180         3.707845         1.165026
 H        -0.795204         4.821790        -0.722662
 H        -0.458802         5.280977         0.893684
 H         1.767814         2.434679         1.375910
 H         0.978153         3.898008         2.394597
 H        -0.833351         2.165634         2.743425
