19
Iteration:  4927charge 0 multiplicity 1
 O         0.353781         0.247543         0.350090
 C        -0.627351         1.157988         0.626086
 C        -2.109648         0.950789         0.257943
 C        -1.458771         2.152283        -0.228790
 C        -1.369290         3.277188         0.776254
 C        -0.411258         4.374820         0.279008
 O         0.901863         3.771790         0.222205
 C         0.946628         3.141209         1.568826
 C        -0.420680         2.347475         1.739687
 H         0.053519        -0.628012         0.412248
 H        -2.217081         0.052610        -0.471890
 H        -2.874274         0.932017         1.112576
 H        -1.636312         2.488732        -1.282077
 H        -2.254270         3.574089         1.384866
 H        -0.731815         4.523451        -0.740304
 H        -0.450689         5.304597         0.958400
 H         1.741062         2.355668         1.599081
 H         0.996401         3.896877         2.336014
 H        -0.694054         2.141208         2.793681
