19
Iteration:   274
 O         0.289786         0.248643         0.150394
 C        -0.685293         1.120646         0.626767
 C        -2.188217         0.791675         0.607078
 C        -1.695323         2.072432        -0.082843
 C        -1.261355         3.282907         0.780953
 C        -0.309293         4.419926         0.171674
 O         0.992809         4.009722         0.290242
 C         0.996123         3.102103         1.463164
 C        -0.396594         2.297306         1.556764
 H         0.259511        -0.641907         0.738937
 H        -2.520305         0.012632        -0.094436
 H        -2.745220         0.810006         1.537095
 H        -1.732132         2.111406        -1.213729
 H        -2.041735         3.909642         1.423130
 H        -0.603506         4.749369        -0.784042
 H        -0.547097         5.253000         0.945085
 H         1.932244         2.511412         1.384020
 H         1.251543         3.737390         2.409027
 H        -0.681158         2.144719         2.601640
