19
Iteration:  4084
 O         0.252910         0.116383         0.272829
 C        -0.707695         1.133312         0.519367
 C        -2.169168         0.926223         0.650312
 C        -1.691461         2.005564        -0.375129
 C        -1.183127         3.227264         0.506304
 C        -0.242997         4.399842        -0.026940
 O         0.814478         4.263043         0.977041
 C         1.036834         2.990096         1.494195
 C        -0.306225         2.297999         1.460900
 H        -0.133894        -0.765266         0.405488
 H        -2.573930         0.011528         0.144138
 H        -2.523276         1.184571         1.673935
 H        -2.017558         1.991698        -1.432899
 H        -1.983153         3.838036         1.121231
 H         0.157719         4.310547        -1.000842
 H        -0.672567         5.391322        -0.104900
 H         1.810682         2.591218         0.977651
 H         1.456229         3.003152         2.568327
 H        -0.822233         2.390596         2.408852
