19
Iteration:  1098charge 0 multiplicity 1
 O         0.302046         0.412818         0.195699
 C        -0.723391         1.185037         0.648092
 C        -2.176315         0.795204         0.493955
 C        -1.696427         2.139902        -0.101369
 C        -1.350427         3.287368         0.840040
 C        -0.445407         4.373936         0.205712
 O         1.048288         3.768088         0.200701
 C         1.060659         3.073883         1.483835
 C        -0.310130         2.339523         1.653551
 H         0.345991        -0.501185         0.758738
 H        -2.034947         0.036496        -0.351518
 H        -3.010912         0.577972         1.101078
 H        -1.886685         2.456599        -1.140904
 H        -1.993232         3.674175         1.533570
 H        -0.566681         4.694422        -0.828123
 H        -0.364649         5.243249         0.818086
 H         1.946254         2.352799         1.482624
 H         0.975102         3.729772         2.330944
 H        -0.704013         2.277650         2.749740
