19
Iteration:  1286charge 0 multiplicity 1
 O         0.333682         0.374187         0.198597
 C        -0.648665         1.247002         0.620073
 C        -2.124291         0.895520         0.584199
 C        -1.642666         2.129766        -0.154395
 C        -1.358016         3.273426         0.741028
 C        -0.403248         4.354124         0.254064
 O         0.948591         3.738188         0.235882
 C         1.018023         2.992989         1.524886
 C        -0.377837         2.366050         1.555903
 H         0.409661        -0.346911         0.957292
 H        -2.301851         0.035224        -0.113394
 H        -2.830624         0.931173         1.420807
 H        -1.839135         2.238388        -1.201785
 H        -2.122067         3.764704         1.260285
 H        -0.662694         4.775537        -0.757062
 H        -0.478411         5.178146         0.962401
 H         1.897709         2.362232         1.454089
 H         1.089437         3.752503         2.356400
 H        -0.623511         2.175870         2.679209
