19
Iteration:   359charge 0 multiplicity 1
 O         0.268972         0.264718         0.366850
 C        -0.713454         1.154889         0.748382
 C        -2.149099         0.858648         0.325333
 C        -1.616847         2.165141        -0.214075
 C        -1.263877         3.262528         0.853613
 C        -0.448307         4.471247         0.429275
 O         0.932024         3.871195         0.092743
 C         1.039681         3.019521         1.289140
 C        -0.311054         2.303169         1.697046
 H         0.364341        -0.376040         0.976645
 H        -2.241543         0.022442        -0.370041
 H        -2.881714         0.878555         1.079907
 H        -1.489840         2.416168        -1.323466
 H        -2.129127         3.470985         1.454941
 H        -0.925927         4.827764        -0.487772
 H        -0.471237         5.246172         1.175021
 H         1.786081         2.314465         1.151191
 H         1.221336         3.707753         2.047826
 H        -0.282440         2.267784         2.880125
