19
Iteration:  2907charge 0 multiplicity 1
 O         0.285604         0.167501         0.346744
 C        -0.695278         1.191885         0.633788
 C        -2.159682         0.893628         0.460980
 C        -1.608474         2.123122        -0.203720
 C        -1.346893         3.222021         0.770876
 C        -0.351476         4.385452         0.173396
 O         0.990905         3.948109         0.328582
 C         1.024566         3.019408         1.533118
 C        -0.409911         2.378393         1.616073
 H         0.982127         0.464580        -0.380630
 H        -2.201413         0.059025        -0.224985
 H        -2.973428         0.813988         1.160179
 H        -1.980459         2.311312        -1.240326
 H        -2.230942         3.677886         1.344180
 H        -0.628678         4.734744        -0.829712
 H        -0.633735         5.248252         0.825132
 H         1.722524         2.276408         1.218866
 H         1.335514         3.642827         2.359036
 H        -0.637008         2.122307         2.646569
