19
Iteration:   909charge 0 multiplicity 1
 O         0.360716         0.218357         0.426067
 C        -0.618159         1.243153         0.568189
 C        -2.046433         0.943082         0.516707
 C        -1.639157         2.149321        -0.248610
 C        -1.287036         3.281590         0.837140
 C        -0.466703         4.493464         0.314181
 O         0.849346         3.893827         0.238172
 C         1.010436         2.898091         1.363396
 C        -0.350739         2.296952         1.575677
 H        -0.174187        -0.665474         0.589239
 H        -2.384770         0.248555        -0.318315
 H        -2.881863         1.080505         1.304104
 H        -1.890106         2.343661        -1.318712
 H        -2.117397         3.533482         1.437529
 H        -0.700775         4.734883        -0.716116
 H        -0.371543         5.395988         0.993519
 H         1.817671         2.137269         0.881058
 H         1.271397         3.502740         2.245779
 H        -0.538935         2.000889         2.645324
