19
Iteration:  3182charge 0 multiplicity 1
 O         0.309505         0.317815         0.229825
 C        -0.686868         1.202594         0.626159
 C        -2.077125         0.894564         0.575997
 C        -1.461128         2.088155        -0.370185
 C        -1.330650         3.269456         0.606884
 C        -0.382918         4.425412         0.362734
 O         0.882239         3.850317         0.428231
 C         0.936293         2.907764         1.463551
 C        -0.452891         2.391989         1.590458
 H         0.759623         0.018041         1.078590
 H        -2.359781        -0.097114         0.225403
 H        -2.789527         1.420441         1.217332
 H        -1.388476         2.203813        -1.457429
 H        -2.319759         3.515962         0.818601
 H        -0.303451         5.080713        -0.564580
 H        -0.532184         5.291283         1.046344
 H         1.706728         1.954440         1.352464
 H         1.272679         3.276487         2.410039
 H        -1.040473         2.258438         2.561812
