19
Iteration:    98
 O         0.203790         0.110854         0.259155
 C        -0.634386         1.162370         0.687942
 C        -2.077423         0.826082         0.545439
 C        -1.546041         2.061503        -0.177150
 C        -1.342442         3.282839         0.759079
 C        -0.452218         4.456171         0.335084
 O         0.912942         4.011019         0.196511
 C         1.098376         3.034881         1.379805
 C        -0.342494         2.408029         1.602863
 H         0.009793        -0.532393         0.865006
 H        -2.362373         0.085056        -0.151165
 H        -2.839805         0.925441         1.284320
 H        -1.606403         2.242024        -1.232496
 H        -2.329456         3.735837         1.190708
 H        -0.725770         5.011874        -0.472745
 H        -0.611431         5.220283         1.129632
 H         1.951019         2.459807         1.175607
 H         1.407551         3.671655         2.204311
 H        -0.587615         2.218273         2.601724
