19
Iteration:  4607charge 0 multiplicity 1
 O         0.199452         0.130275         0.322904
 C        -0.672968         1.155375         0.669450
 C        -2.150890         0.883199         0.453627
 C        -1.503734         2.106283        -0.247002
 C        -1.301341         3.312537         0.660924
 C        -0.295020         4.286941         0.027492
 O         0.777964         4.280565         0.902306
 C         1.020535         2.956254         1.217259
 C        -0.327768         2.247184         1.609661
 H         0.711860        -0.022118         1.064718
 H        -2.446370         0.062754        -0.329261
 H        -3.096308         1.238746         0.886548
 H        -1.394042         2.148507        -1.366770
 H        -2.163034         3.849318         1.262572
 H        -0.006092         3.732988        -0.953817
 H        -0.759904         5.287441        -0.043494
 H         1.436179         2.323588         0.250925
 H         1.854215         2.890461         1.827242
 H        -0.399399         2.324697         2.618556
