19
Iteration:  2744charge 0 multiplicity 1
 O         0.185420         0.076907         0.246413
 C        -0.636615         1.199892         0.623234
 C        -2.051764         0.888249         0.591698
 C        -1.590311         2.093848        -0.221271
 C        -1.352315         3.249379         0.701845
 C        -0.350309         4.443850         0.276414
 O         0.897960         3.839150         0.244405
 C         1.011267         3.195866         1.524582
 C        -0.372891         2.343026         1.620338
 H         1.104944         0.384730         0.003896
 H        -2.267421        -0.046053         0.082771
 H        -2.724626         1.108371         1.414954
 H        -1.687910         2.175982        -1.282631
 H        -2.214525         3.675760         1.306857
 H        -0.550881         4.922745        -0.739347
 H        -0.352032         5.270292         0.983684
 H         1.807421         2.512762         1.468355
 H         1.030608         3.908189         2.329216
 H        -0.758849         2.220535         2.662490
