19
Iteration:  4224charge 0 multiplicity 1
 O         0.242345         0.187769         0.278678
 C        -0.680976         1.078764         0.665057
 C        -2.187515         0.978122         0.548573
 C        -1.543541         1.987482        -0.379789
 C        -1.275620         3.175069         0.581108
 C        -0.324212         4.374516         0.136931
 O         0.958531         4.285745         0.808689
 C         1.041890         2.968559         1.467288
 C        -0.428787         2.339681         1.529844
 H        -0.139313        -0.610185         0.000961
 H        -2.461505         0.039711         0.066659
 H        -2.905065         1.070211         1.282574
 H        -1.606497         2.078051        -1.492787
 H        -2.243827         3.460699         0.888039
 H        -0.076316         4.333102        -0.985365
 H        -0.894884         5.423779         0.089046
 H         1.661333         2.281964         0.756453
 H         1.710697         2.929160         2.316613
 H        -0.857753         2.378164         2.605064
