19
Iteration:  1878
 O         0.336651         0.328806         0.075765
 C        -0.678024         1.188879         0.714742
 C        -2.166992         1.052006         0.628802
 C        -1.491507         2.040043        -0.184174
 C        -1.324584         3.315760         0.766966
 C        -0.407274         4.341518         0.198373
 O         0.901737         3.794068         0.350209
 C         0.948067         2.994329         1.520199
 C        -0.361637         2.372111         1.574850
 H         0.209378        -0.670510         0.419863
 H        -2.489116         0.170835         0.093766
 H        -2.622121         1.391487         1.599021
 H        -1.356555         2.150920        -1.259927
 H        -2.377739         3.417266         1.190201
 H        -0.676347         4.318083        -0.914615
 H        -0.381076         5.354510         0.565995
 H         1.733231         2.130075         1.454492
 H         1.228413         3.744829         2.248311
 H        -0.685352         2.147324         2.636023
