19
Iteration:   233
 O         0.323886         0.325924        -0.002388
 C        -0.633448         1.269769         0.564130
 C        -2.099408         0.971858         0.722619
 C        -1.575837         2.100300        -0.146623
 C        -1.314785         3.298271         0.807071
 C        -0.388293         4.176382         0.152059
 O         0.896241         3.828975         0.287385
 C         0.941144         3.048571         1.559188
 C        -0.361149         2.355144         1.694456
 H         0.334963        -0.355311         0.587584
 H        -2.464326         0.007169         0.324141
 H        -2.705439         1.377753         1.612629
 H        -1.748238         2.278893        -1.182613
 H        -2.203307         3.771199         1.197089
 H        -0.583276         4.279023        -0.972098
 H        -0.577563         5.202377         0.516878
 H         1.870443         2.365127         1.541286
 H         1.122860         3.666111         2.423643
 H        -0.771424         2.059269         2.635834
