19
Iteration:  2730charge 0 multiplicity 1
 O         0.125164         0.194827         0.229497
 C        -0.617768         1.211749         0.638811
 C        -2.074257         0.882971         0.593182
 C        -1.526088         2.076937        -0.221615
 C        -1.250479         3.294959         0.766409
 C        -0.434671         4.366512         0.243926
 O         0.946453         3.832683         0.248949
 C         0.910679         3.084632         1.471307
 C        -0.327984         2.414096         1.597566
 H         1.104527         0.253261         0.488489
 H        -2.169477         0.023683        -0.088626
 H        -2.603203         0.871895         1.517062
 H        -1.650061         2.093019        -1.319261
 H        -2.299778         3.692482         1.184713
 H        -0.744845         4.662624        -0.700212
 H        -0.613761         5.141435         1.048087
 H         1.791208         2.641413         1.653185
 H         0.989288         3.798932         2.344571
 H        -0.497022         2.165595         2.623353
