19
Iteration:  2600
 O         0.256591         0.225612         0.195236
 C        -0.672423         1.217060         0.648946
 C        -2.086916         0.942036         0.534248
 C        -1.574336         2.118590        -0.207797
 C        -1.387429         3.311262         0.774940
 C        -0.420147         4.249717         0.181957
 O         0.909627         3.768418         0.296551
 C         1.009002         3.098625         1.541600
 C        -0.320815         2.411230         1.673753
 H         1.055214         0.801899         0.155010
 H        -2.363913         0.110405        -0.063181
 H        -2.568863         0.980203         1.478279
 H        -1.851918         2.228460        -1.292505
 H        -2.261463         3.672282         1.309676
 H        -0.646823         4.371299        -0.863561
 H        -0.514485         5.255293         0.675411
 H         1.912571         2.349062         1.375334
 H         1.169345         3.804745         2.356621
 H        -0.545577         2.103542         2.716662
