19
Iteration:   151
 O         0.485046         0.350123         0.212800
 C        -0.665495         1.183541         0.588654
 C        -2.170149         0.987937         0.619077
 C        -1.510765         2.181874        -0.196930
 C        -1.311863         3.333071         0.878519
 C        -0.451076         4.363280         0.214923
 O         0.838663         3.695398         0.218887
 C         0.913719         2.976799         1.356673
 C        -0.373649         2.326684         1.712320
 H         0.419783        -0.303785         0.881670
 H        -2.497921         0.284424        -0.065530
 H        -2.685488         1.009060         1.549403
 H        -1.800809         2.333910        -1.209133
 H        -2.323465         3.616211         1.343862
 H        -0.637344         4.474143        -0.820004
 H        -0.451285         5.362150         0.789355
 H         1.606206         2.224742         1.118952
 H         1.242744         3.735271         2.162173
 H        -0.603429         2.068133         2.746075
