19
Iteration:   238charge 0 multiplicity 1
 O         0.289719         0.309764         0.033077
 C        -0.587002         1.277658         0.535001
 C        -2.089029         0.968962         0.687429
 C        -1.669884         2.089117        -0.161605
 C        -1.350050         3.250346         0.841219
 C        -0.401444         4.215409         0.135368
 O         0.928774         3.838833         0.294283
 C         0.996247         3.074191         1.586360
 C        -0.364947         2.353238         1.647272
 H         0.378538        -0.467303         0.785572
 H        -2.407693         0.005718         0.347796
 H        -2.558447         1.318099         1.568141
 H        -1.663796         2.253747        -1.272867
 H        -2.097059         3.869824         1.432273
 H        -0.510588         4.323257        -0.958778
 H        -0.543387         5.253470         0.489494
 H         1.768683         2.364947         1.445198
 H         1.142465         3.736320         2.492882
 H        -0.798970         1.990782         2.657639
