19
Iteration:  1404
 O         0.194951         0.268378         0.150056
 C        -0.614547         1.204537         0.684483
 C        -2.158436         1.016231         0.638311
 C        -1.510284         1.997763        -0.229468
 C        -1.323017         3.204127         0.685951
 C        -0.516575         4.375756         0.225574
 O         0.949561         3.950214         0.350497
 C         1.085230         3.029185         1.482524
 C        -0.327559         2.378165         1.615900
 H        -0.059700        -0.680114         0.444349
 H        -2.514620         0.157885         0.039892
 H        -2.797642         1.266816         1.405744
 H        -1.291535         1.995489        -1.268207
 H        -2.282522         3.338713         1.264273
 H        -0.511606         4.585531        -0.762857
 H        -0.674855         5.349703         0.802737
 H         1.805375         2.176160         1.232004
 H         1.472123         3.424516         2.459851
 H        -0.463509         2.199043         2.619551
