19
Iteration:  3676charge 0 multiplicity 1
 O         0.179867         0.022478         0.299793
 C        -0.690259         1.163318         0.569111
 C        -2.175406         0.905686         0.570512
 C        -1.584539         2.043383        -0.323742
 C        -1.330366         3.184070         0.659663
 C        -0.281410         4.279613         0.018836
 O         0.843820         4.388940         0.858783
 C         1.094509         3.003128         1.390895
 C        -0.259652         2.358165         1.592568
 H        -0.305167        -0.451281        -0.517460
 H        -2.371510        -0.011541         0.100136
 H        -2.894355         1.253120         1.236888
 H        -1.644280         2.219663        -1.408930
 H        -2.145621         3.722357         0.968443
 H         0.144367         3.859188        -0.940967
 H        -0.621092         5.430899         0.005509
 H         1.960135         2.487520         0.716045
 H         1.431658         3.268726         2.474475
 H        -0.599938         2.172585         2.610865
