19
Iteration:  2487
 O         0.263852         0.196769         0.320457
 C        -0.670907         1.198595         0.602225
 C        -2.092099         0.890180         0.473109
 C        -1.660456         2.192567        -0.154265
 C        -1.329811         3.218715         0.845049
 C        -0.398475         4.338801         0.245026
 O         0.968961         3.757431         0.252173
 C         1.015818         3.117201         1.455918
 C        -0.379600         2.404247         1.596243
 H         1.094635         0.728888         0.015495
 H        -2.234426         0.055166        -0.312697
 H        -2.985634         0.750937         1.172731
 H        -2.047451         2.422376        -1.141048
 H        -2.085166         3.669107         1.403201
 H        -0.627903         4.570571        -0.806721
 H        -0.445058         5.313463         0.809697
 H         1.955905         2.592503         1.486218
 H         0.899142         3.862573         2.270035
 H        -0.452682         2.203387         2.672608
