19
Iteration:  3365charge 0 multiplicity 1
 O         0.217378         0.181788         0.205958
 C        -0.647948         1.159615         0.615059
 C        -2.157282         0.934698         0.421062
 C        -1.526789         2.106380        -0.235874
 C        -1.336907         3.270230         0.698851
 C        -0.383558         4.265734         0.272118
 O         0.925210         3.754025         0.321769
 C         0.943378         3.266552         1.664811
 C        -0.309917         2.360980         1.656058
 H         1.074844         0.500136        -0.100411
 H        -2.105069         0.077862        -0.271796
 H        -2.740919         0.910458         1.334362
 H        -1.560354         2.257413        -1.334731
 H        -2.280601         3.622057         1.122234
 H        -0.648792         4.534275        -0.732906
 H        -0.338928         5.271815         0.839522
 H         1.877508         2.996865         1.967304
 H         0.827368         4.053376         2.469389
 H        -0.751522         2.190322         2.646355
