19
Iteration:  1071
 O         0.347423         0.399301         0.112459
 C        -0.679914         1.200198         0.595078
 C        -2.110936         0.919700         0.656998
 C        -1.671701         2.130573        -0.199228
 C        -1.350961         3.269156         0.773159
 C        -0.402882         4.288499         0.166066
 O         0.950608         3.843454         0.325015
 C         1.030895         2.968716         1.494859
 C        -0.378859         2.344161         1.664533
 H         0.418804        -0.490518         0.657033
 H        -2.421920         0.048251         0.122712
 H        -2.695020         1.133716         1.624501
 H        -1.752203         2.313010        -1.285168
 H        -2.184010         3.850115         1.380852
 H        -0.518404         4.354226        -0.935473
 H        -0.494546         5.278896         0.709326
 H         1.773076         2.198921         1.191199
 H         1.215051         3.524831         2.452506
 H        -0.722881         2.228758         2.746868
