19
Iteration:  1828
 O         0.284445         0.208135         0.205761
 C        -0.740427         1.183792         0.596527
 C        -2.156730         0.864688         0.584060
 C        -1.721487         2.035039        -0.230641
 C        -1.324809         3.339806         0.792909
 C        -0.408517         4.422815         0.169015
 O         1.040793         3.938533         0.396585
 C         1.047287         3.015041         1.499687
 C        -0.299851         2.333220         1.517548
 H         0.352781        -0.240979         0.976641
 H        -2.375057        -0.042324        -0.062212
 H        -2.862630         1.083748         1.340114
 H        -1.868443         2.319151        -1.286710
 H        -2.087853         3.675571         1.408817
 H        -0.507470         4.692983        -0.843740
 H        -0.478564         5.310044         0.839096
 H         1.949697         2.478525         1.350459
 H         1.218948         3.629997         2.455219
 H        -0.676578         2.184094         2.519283
