19
Iteration:  1087
 O         0.308776         0.433185         0.190485
 C        -0.707264         1.295632         0.631510
 C        -2.206788         0.787730         0.486515
 C        -1.736985         2.080070        -0.100020
 C        -1.341119         3.267058         0.859876
 C        -0.345699         4.291746         0.210198
 O         1.025352         3.813856         0.280807
 C         1.040439         3.078175         1.444858
 C        -0.327402         2.360260         1.599644
 H         0.221113        -0.353487         0.834295
 H        -2.321993        -0.028635        -0.291606
 H        -2.843850         0.762989         1.326386
 H        -1.848812         2.125201        -1.181377
 H        -2.169325         3.688415         1.309033
 H        -0.579283         4.469223        -0.829922
 H        -0.443489         5.194582         0.802344
 H         1.905857         2.344082         1.454189
 H         1.249162         3.753157         2.276104
 H        -0.403959         1.943958         2.653146
