19
Iteration:  4168
 O         0.248870         0.223177         0.267187
 C        -0.700775         1.180213         0.571796
 C        -2.225957         0.853895         0.445878
 C        -1.617635         2.012939        -0.278012
 C        -1.364648         3.264126         0.697441
 C        -0.176803         4.210502         0.036255
 O         0.895313         4.316733         0.910050
 C         1.056525         2.925943         1.360790
 C        -0.384206         2.356875         1.538521
 H         0.543330        -0.127124         1.196836
 H        -2.541851        -0.030555        -0.104402
 H        -2.937314         1.104332         1.185789
 H        -1.646252         2.162866        -1.349625
 H        -2.142597         3.920547         0.994007
 H         0.222114         3.777067        -0.995522
 H        -0.793017         5.207710        -0.072240
 H         1.600361         2.443030         0.430528
 H         1.590219         2.891393         2.285640
 H        -0.632609         2.145637         2.631041
