19
Iteration:  4807charge 0 multiplicity 1
 O         0.298320         0.183511         0.263871
 C        -0.673903         1.173310         0.594676
 C        -2.094092         0.894170         0.556735
 C        -1.592374         2.154413        -0.278983
 C        -1.312706         3.279120         0.685293
 C        -0.372431         4.260905         0.056252
 O         0.910394         4.180579         0.652975
 C         1.024672         2.994324         1.528675
 C        -0.338075         2.273780         1.599033
 H        -0.099115        -0.746962         0.057058
 H        -2.433185         0.240192        -0.240389
 H        -2.984104         0.877168         1.284556
 H        -1.771333         2.235601        -1.351622
 H        -2.305055         3.691950         1.142664
 H        -0.285266         3.965158        -1.042376
 H        -0.702586         5.343123         0.027597
 H         1.749344         2.378867         0.966087
 H         1.204599         3.438269         2.543122
 H        -0.785750         2.174982         2.551463
