19
Iteration:  4471charge 0 multiplicity 1
 O         0.286253         0.216995         0.351621
 C        -0.720702         1.197133         0.547392
 C        -2.148187         0.816236         0.519825
 C        -1.683369         2.046943        -0.244317
 C        -1.254749         3.312439         0.621630
 C        -0.209806         4.176987        -0.050096
 O         0.809818         4.276317         0.980033
 C         1.020890         2.953032         1.379624
 C        -0.359713         2.361374         1.549225
 H         0.103025        -0.096065        -0.607014
 H        -2.568358         0.110647        -0.171340
 H        -2.806154         1.117728         1.331932
 H        -1.737975         2.140713        -1.347402
 H        -2.037143         3.943003         1.086214
 H         0.215991         3.843169        -1.115314
 H        -0.731092         5.088147        -0.206780
 H         1.645475         2.395150         0.592378
 H         1.832025         2.864315         2.167361
 H        -0.579206         2.116967         2.609401
