19
Iteration:  3177charge 0 multiplicity 1
 O         0.309229         0.335947         0.225211
 C        -0.649210         1.186705         0.629909
 C        -2.141887         0.928302         0.559204
 C        -1.425859         2.083094        -0.393665
 C        -1.351216         3.224316         0.640221
 C        -0.396408         4.443019         0.357091
 O         0.881782         3.800256         0.438881
 C         0.977262         2.938578         1.469012
 C        -0.482580         2.434163         1.583548
 H         0.844554         0.005148         1.009714
 H        -2.427496        -0.067682         0.218446
 H        -2.840504         1.403121         1.255283
 H        -1.259856         2.093359        -1.470526
 H        -2.478408         3.549935         0.860209
 H        -0.379888         4.866707        -0.631850
 H        -0.472442         5.229627         1.173477
 H         1.598936         2.104538         1.317908
 H         1.436786         3.385179         2.413739
 H        -0.830555         2.165369         2.568851
