19
Iteration:  2990
 O         0.215656         0.273543         0.207748
 C        -0.648970         1.216663         0.633395
 C        -2.176926         0.863438         0.451674
 C        -1.531329         2.104796        -0.280807
 C        -1.310911         3.225010         0.732856
 C        -0.335486         4.371866         0.283388
 O         0.944111         3.786513         0.306862
 C         0.967777         3.159673         1.552673
 C        -0.370995         2.284934         1.670423
 H         0.952173         0.058298         0.850043
 H        -2.446202         0.124122        -0.310125
 H        -2.880462         1.124351         1.283108
 H        -1.608989         2.343686        -1.352638
 H        -2.200961         3.731326         1.210697
 H        -0.776739         4.619863        -0.695824
 H        -0.403905         5.176652         1.074227
 H         2.061151         2.986250         1.639223
 H         0.904028         3.970996         2.338880
 H        -0.664419         1.949041         2.687679
