19
Iteration:  3734
 O         0.280031         0.335797         0.213754
 C        -0.723906         1.178414         0.600303
 C        -2.208181         0.912028         0.632054
 C        -1.653281         1.983342        -0.315068
 C        -1.326465         3.225236         0.576582
 C        -0.229230         4.196474         0.063196
 O         0.931231         4.242931         0.966677
 C         1.049358         2.899452         1.316442
 C        -0.425478         2.370740         1.483112
 H         0.738767         0.077392         0.985405
 H        -2.627136         0.035236         0.063177
 H        -2.836593         1.217115         1.532984
 H        -1.611897         1.736574        -1.403693
 H        -2.186812         3.812893         0.991629
 H         0.169252         3.876308        -0.923814
 H        -0.604501         5.143984        -0.121986
 H         1.629202         2.394038         0.462762
 H         1.582871         2.630998         2.255638
 H        -0.820015         2.416646         2.500481
