19
Iteration:   727
 O         0.500752         0.308526         0.190319
 C        -0.659336         1.145105         0.609491
 C        -2.165257         1.095771         0.653317
 C        -1.642432         2.206158        -0.221386
 C        -1.338630         3.281629         0.785322
 C        -0.413733         4.353902         0.294247
 O         0.862037         3.694215         0.195419
 C         0.996895         3.024486         1.538836
 C        -0.360923         2.311252         1.552496
 H         0.320567        -0.490332         0.582137
 H        -2.633051         0.340945        -0.047160
 H        -2.594214         0.985895         1.634327
 H        -2.007196         2.254486        -1.258144
 H        -2.373336         3.575965         1.215039
 H        -0.610685         4.624806        -0.761337
 H        -0.408341         5.282155         0.914361
 H         1.766812         2.340142         1.458006
 H         0.989337         3.770468         2.355394
 H        -0.632764         2.022858         2.667777
