19
Iteration:   136charge 0 multiplicity 1
 O         0.335260         0.352986         0.222068
 C        -0.627516         1.162077         0.706187
 C        -2.129310         1.004213         0.538863
 C        -1.459989         2.115600        -0.106124
 C        -1.364297         3.239819         0.833346
 C        -0.459517         4.356411         0.252678
 O         0.846899         3.808116         0.122540
 C         1.014307         3.013643         1.425054
 C        -0.380462         2.302336         1.646014
 H         0.354113        -0.533582         0.574038
 H        -2.650490         0.260393        -0.169683
 H        -2.770228         1.327015         1.428915
 H        -1.430304         2.226779        -1.229642
 H        -2.242626         3.620533         1.257127
 H        -0.894164         4.660126        -0.828371
 H        -0.392472         5.247054         0.898679
 H         1.947090         2.316336         1.336202
 H         1.170815         3.624625         2.362825
 H        -0.512153         2.116023         2.785871
