19
Iteration:  3900
 O         0.288907         0.185205         0.443310
 C        -0.727208         1.149781         0.585600
 C        -2.142986         0.938374         0.469728
 C        -1.529988         2.083946        -0.411003
 C        -1.266917         3.249451         0.713097
 C        -0.316769         4.300079         0.106882
 O         0.881549         4.283306         0.903186
 C         1.062265         2.915931         1.258827
 C        -0.460892         2.284545         1.520752
 H        -0.200695        -0.731960         0.329800
 H        -2.364219         0.148990        -0.274115
 H        -2.943152         1.175920         1.281543
 H        -1.769383         2.329561        -1.429079
 H        -2.101264         3.643684         1.183818
 H         0.052062         3.983665        -0.932132
 H        -0.770550         5.278695        -0.044342
 H         1.508490         2.382302         0.427269
 H         1.883208         2.753933         1.946628
 H        -0.818590         2.261970         2.560582
