19
Iteration:   480charge 0 multiplicity 1
 O         0.353872         0.430042         0.015216
 C        -0.645140         1.183765         0.682255
 C        -2.175676         1.006365         0.717053
 C        -1.548079         2.090741        -0.122851
 C        -1.321280         3.251046         0.784849
 C        -0.399891         4.336337         0.068685
 O         0.882145         3.797690         0.308588
 C         0.976760         3.033045         1.547285
 C        -0.357415         2.235157         1.688438
 H         0.456574        -0.539399         0.468990
 H        -2.465412         0.223679         0.055417
 H        -2.781283         1.343790         1.514417
 H        -1.673859         2.244439        -1.169248
 H        -2.154706         3.672481         1.242870
 H        -0.516349         4.164513        -0.992691
 H        -0.649498         5.397769         0.365507
 H         1.813617         2.353088         1.312941
 H         1.300141         3.652314         2.525676
 H        -0.842684         1.981852         2.591829
