19
Iteration:  1014
 O         0.202357         0.286926         0.158542
 C        -0.689334         1.239233         0.594617
 C        -2.177304         0.837470         0.581276
 C        -1.696943         1.980248        -0.169347
 C        -1.338700         3.250323         0.770542
 C        -0.327870         4.322693         0.274542
 O         1.001804         3.918446         0.285256
 C         1.029650         3.135890         1.507686
 C        -0.234383         2.377755         1.563994
 H         0.378041        -0.356869         0.843699
 H        -2.327010         0.103250        -0.243203
 H        -2.875308         0.820361         1.335271
 H        -1.815332         2.114948        -1.275459
 H        -2.242609         3.545684         1.435543
 H        -0.541308         4.726794        -0.769416
 H        -0.368123         5.262502         0.930010
 H         1.874488         2.610425         1.630002
 H         0.995875         3.771855         2.466692
 H        -0.513545         2.165255         2.546368
