19
Iteration:  3732
 O         0.279280         0.344671         0.215738
 C        -0.720388         1.171099         0.599335
 C        -2.218306         0.927117         0.616915
 C        -1.653878         1.960075        -0.318796
 C        -1.334694         3.237806         0.591073
 C        -0.243630         4.191221         0.060576
 O         0.929127         4.236361         0.974598
 C         1.056329         2.903244         1.317753
 C        -0.404555         2.377082         1.485831
 H         0.737008        -0.029053         1.060292
 H        -2.586349         0.047452         0.115196
 H        -2.814379         1.153753         1.457425
 H        -1.694639         1.744042        -1.412246
 H        -2.074965         3.833569         1.006486
 H         0.167917         3.845809        -0.964459
 H        -0.556872         5.230590        -0.173989
 H         1.586939         2.389554         0.382445
 H         1.617821         2.689051         2.298302
 H        -0.880926         2.376498         2.462783
