19
Iteration:  1990
 O         0.252454         0.188472         0.231621
 C        -0.654883         1.154933         0.666034
 C        -2.110629         0.893705         0.579158
 C        -1.511947         2.083160        -0.255290
 C        -1.282426         3.275138         0.723154
 C        -0.377660         4.481466         0.349078
 O         0.936393         3.868788         0.223248
 C         0.976037         3.051779         1.437132
 C        -0.417189         2.404671         1.628720
 H         0.019761        -0.514837         0.759936
 H        -2.446751         0.051395        -0.077882
 H        -2.910895         1.007160         1.338331
 H        -1.536862         2.009336        -1.348551
 H        -2.171540         3.627428         1.278405
 H        -0.607321         4.884976        -0.631916
 H        -0.322742         5.215031         1.137191
 H         1.751758         2.407451         1.404801
 H         1.134172         3.868841         2.260362
 H        -0.770860         2.160440         2.547357
