19
Iteration:  3415
 O         0.280451         0.272652         0.265977
 C        -0.712121         1.151920         0.577999
 C        -2.092297         0.850383         0.622994
 C        -1.580275         2.075145        -0.298291
 C        -1.355261         3.263844         0.615766
 C        -0.416329         4.366381         0.104540
 O         0.988443         3.958447         0.563375
 C         1.002588         2.961430         1.562120
 C        -0.435402         2.410184         1.606767
 H         1.090664         0.598557        -0.293366
 H        -2.514646         0.078533        -0.067073
 H        -2.801909         1.236290         1.348849
 H        -1.567272         1.980145        -1.407467
 H        -2.289908         3.687823         1.111118
 H        -0.328536         4.739256        -0.970079
 H        -0.600807         5.240332         0.615970
 H         1.771686         2.082269         1.289114
 H         1.402769         3.264693         2.470118
 H        -0.786801         2.214409         2.631439
