19
Iteration:  2327charge 0 multiplicity 1
 O         0.366977         0.400505         0.268816
 C        -0.716397         1.144403         0.704098
 C        -2.159191         0.800739         0.584177
 C        -1.603847         2.099763        -0.254326
 C        -1.346797         3.322942         0.696343
 C        -0.401939         4.460759         0.372373
 O         0.979819         3.805326         0.257386
 C         0.988004         2.933945         1.397920
 C        -0.396675         2.413213         1.576039
 H         0.066850        -0.553328         0.235631
 H        -2.371793        -0.087719        -0.061420
 H        -2.850985         0.892292         1.324493
 H        -1.311489         1.976177        -1.314101
 H        -2.304656         3.625970         1.299437
 H        -0.430128         4.967444        -0.570011
 H        -0.387354         5.318133         1.131773
 H         1.747741         2.166940         1.169872
 H         1.209872         3.508282         2.310765
 H        -0.660434         2.559576         2.621314
