19
Iteration:   740
 O         0.409454         0.323064         0.162050
 C        -0.555809         1.217309         0.566552
 C        -2.078681         0.956750         0.606523
 C        -1.645147         2.152534        -0.149573
 C        -1.352261         3.326521         0.799418
 C        -0.390960         4.359386         0.242242
 O         0.876719         3.646802         0.246492
 C         0.921725         3.019159         1.479228
 C        -0.417356         2.380305         1.629054
 H         0.261148        -0.710884         0.376153
 H        -2.576828         0.173673         0.100724
 H        -2.580329         1.373888         1.421262
 H        -1.896758         2.259536        -1.264268
 H        -2.057725         3.834319         1.500842
 H        -0.712356         4.740140        -0.779739
 H        -0.282357         5.252775         0.949855
 H         1.744197         2.424956         1.556504
 H         1.170486         3.779224         2.287998
 H        -0.809874         2.177114         2.712380
