19
Iteration:  2387charge 0 multiplicity 1
 O         0.333605         0.186319         0.331721
 C        -0.660147         1.218193         0.522990
 C        -2.114262         0.913169         0.575026
 C        -1.622258         2.198620        -0.201149
 C        -1.350176         3.261694         0.779152
 C        -0.391402         4.383357         0.196723
 O         0.938202         3.827878         0.293303
 C         0.922679         3.103889         1.487912
 C        -0.286429         2.284023         1.675763
 H         0.450545        -0.187481        -0.646572
 H        -2.414472         0.106188        -0.088030
 H        -2.915167         1.072083         1.448526
 H        -1.906628         2.474732        -1.241335
 H        -2.084980         3.755984         1.267598
 H        -0.581778         4.558413        -0.914226
 H        -0.485547         5.283276         0.835311
 H         1.818695         2.441853         1.479009
 H         1.158690         3.823716         2.334751
 H        -0.748237         1.856440         2.583216
