19
Iteration:  2406
 O         0.275060         0.231413         0.283997
 C        -0.626974         1.167549         0.641316
 C        -2.150640         0.907456         0.566343
 C        -1.598954         2.071147        -0.214157
 C        -1.331847         3.250428         0.758569
 C        -0.367018         4.366069         0.282765
 O         0.962650         3.837248         0.260226
 C         1.003914         3.096802         1.522083
 C        -0.396211         2.391373         1.538892
 H         0.173609         0.454759        -0.730554
 H        -2.373634         0.051758        -0.006649
 H        -2.816969         1.031859         1.455433
 H        -1.690591         1.983915        -1.284960
 H        -2.267431         3.670167         1.272146
 H        -0.560083         4.739365        -0.761380
 H        -0.342952         5.151390         1.079967
 H         1.895407         2.612734         1.547328
 H         1.065066         3.717503         2.466316
 H        -0.658401         2.243244         2.595462
