19
Iteration:  2948charge 0 multiplicity 1
 O         0.413442         0.369832         0.253963
 C        -0.662326         1.190855         0.628654
 C        -2.120015         0.928600         0.592110
 C        -1.517197         2.109516        -0.217502
 C        -1.333394         3.282360         0.676669
 C        -0.423486         4.386522         0.199611
 O         0.938793         3.870289         0.405529
 C         0.983917         2.936802         1.439446
 C        -0.498369         2.306830         1.649372
 H         0.011622        -0.439631         0.106832
 H        -2.478217         0.094297        -0.009222
 H        -2.908057         1.229999         1.275853
 H        -1.716593         2.186767        -1.304846
 H        -2.207645         3.638702         1.062532
 H        -0.342221         4.701433        -0.799319
 H        -0.561125         5.307091         0.794000
 H         1.693117         1.987754         1.148133
 H         1.339721         3.327858         2.417235
 H        -0.995440         2.203671         2.630917
