19
Iteration:   427charge 0 multiplicity 1
 O         0.295709         0.325789         0.186245
 C        -0.714463         1.180477         0.629701
 C        -2.145198         0.844972         0.632702
 C        -1.714934         2.052053        -0.199073
 C        -1.302729         3.245005         0.708920
 C        -0.413121         4.398943         0.270299
 O         0.987416         3.876850         0.295119
 C         1.053358         3.079977         1.454956
 C        -0.266923         2.357950         1.575847
 H         0.076325        -0.643502         0.558920
 H        -2.584389         0.091190        -0.019659
 H        -2.586029         0.904892         1.632766
 H        -1.898055         2.103509        -1.241316
 H        -2.223545         3.813410         1.097949
 H        -0.581240         4.848106        -0.661914
 H        -0.544136         5.134153         1.070159
 H         1.959435         2.427968         1.408600
 H         1.002969         3.683905         2.304708
 H        -0.485863         2.256092         2.748299
