19
Iteration:   761charge 0 multiplicity 1
 O         0.228860         0.456273         0.130375
 C        -0.682742         1.285276         0.705044
 C        -2.085550         0.814563         0.606553
 C        -1.573557         2.125618        -0.161078
 C        -1.395543         3.264345         0.757371
 C        -0.346405         4.344070         0.231036
 O         0.956236         3.725332         0.217048
 C         1.018829         3.008710         1.523113
 C        -0.399270         2.384953         1.666357
 H         0.079667        -0.460108         0.257491
 H        -1.991340         0.096866        -0.198473
 H        -2.600027         0.496930         1.479648
 H        -1.601136         2.012791        -1.297822
 H        -2.246518         3.902319         1.137923
 H        -0.704992         4.519541        -0.825783
 H        -0.291931         5.316826         0.742114
 H         1.817126         2.395911         1.561011
 H         1.260750         3.759762         2.311777
 H        -0.504024         2.100569         2.817577
