19
Iteration:   985
 O         0.314987         0.179144         0.229184
 C        -0.613673         1.177595         0.622426
 C        -2.096793         1.032978         0.483721
 C        -1.532194         2.170772        -0.153601
 C        -1.291764         3.275831         0.873471
 C        -0.485029         4.374787         0.210415
 O         0.886989         3.881629         0.213027
 C         0.959118         2.993697         1.474009
 C        -0.336606         2.318197         1.654593
 H         0.419808        -0.474738         0.852388
 H        -2.431161         0.276978        -0.234356
 H        -2.828556         0.980328         1.384112
 H        -1.816384         2.491266        -1.189152
 H        -2.223474         3.491052         1.413260
 H        -0.817042         4.611279        -0.796675
 H        -0.479042         5.330269         0.721962
 H         1.818997         2.195901         1.204061
 H         1.233387         3.673944         2.309220
 H        -0.728807         2.097058         2.762700
