19
Iteration:  2049charge 0 multiplicity 1
 O         0.301366         0.249367         0.196985
 C        -0.695738         1.166001         0.713922
 C        -2.242745         0.986096         0.567181
 C        -1.435550         2.081641        -0.231715
 C        -1.363765         3.257503         0.736944
 C        -0.451137         4.411762         0.150465
 O         0.894530         3.944442         0.403663
 C         1.040258         3.012753         1.426989
 C        -0.315041         2.313171         1.659290
 H         0.124271        -0.708955         0.512754
 H        -2.513905         0.049741         0.053902
 H        -2.894889         1.298574         1.403838
 H        -1.245107         2.020620        -1.313295
 H        -2.161411         3.847077         1.279783
 H        -0.494445         4.503203        -0.953493
 H        -0.687969         5.412654         0.502826
 H         1.726514         2.162138         1.006787
 H         1.540719         3.317544         2.370440
 H        -0.353804         2.028518         2.740598
