19
Iteration:  1078
 O         0.321514         0.424070         0.156240
 C        -0.669187         1.236353         0.591251
 C        -2.155018         0.860149         0.588120
 C        -1.727480         2.101291        -0.185176
 C        -1.364838         3.250480         0.835703
 C        -0.311149         4.249333         0.208299
 O         0.948082         3.853405         0.297891
 C         1.033021         3.007814         1.490648
 C        -0.367569         2.357895         1.638715
 H         0.329565        -0.412911         0.748491
 H        -2.498507         0.016278        -0.015461
 H        -2.700239         0.905013         1.461477
 H        -1.690671         2.252658        -1.302362
 H        -2.086282         3.920218         1.248015
 H        -0.578796         4.461781        -0.869571
 H        -0.468392         5.254046         0.627262
 H         1.829889         2.381652         1.256937
 H         1.317282         3.603273         2.388890
 H        -0.410010         2.194494         2.664516
