19
Iteration:  1919charge 0 multiplicity 1
 O         0.359582         0.343713         0.252933
 C        -0.701481         1.242973         0.622049
 C        -2.103346         0.798012         0.529102
 C        -1.720532         2.142407        -0.182252
 C        -1.370152         3.327185         0.809440
 C        -0.295521         4.419169         0.298861
 O         0.957709         3.688988         0.209910
 C         0.990459         3.050214         1.442414
 C        -0.430497         2.410359         1.584141
 H         0.415730        -0.337199         0.891167
 H        -2.195247         0.139517        -0.298201
 H        -2.939534         0.625190         1.227598
 H        -1.805210         2.066576        -1.266132
 H        -2.130139         3.925296         1.377479
 H        -0.462532         4.746999        -0.742445
 H        -0.215961         5.221187         1.092773
 H         1.892540         2.223220         1.364152
 H         1.167900         3.601661         2.431833
 H        -0.620375         2.352819         2.751964
