19
Iteration:   956
 O         0.280019         0.387852         0.289253
 C        -0.662153         1.211926         0.758692
 C        -2.148731         0.946797         0.498435
 C        -1.444278         2.049333        -0.281081
 C        -1.347422         3.261185         0.749025
 C        -0.471051         4.452356         0.370060
 O         0.854990         3.831467         0.191800
 C         1.034616         2.892683         1.369036
 C        -0.336760         2.362622         1.678393
 H         0.162843        -0.598026         0.355321
 H        -2.301065        -0.046076         0.137818
 H        -2.837982         1.167854         1.357464
 H        -1.260842         2.187490        -1.329611
 H        -2.343419         3.408742         1.119431
 H        -0.727521         5.035279        -0.526893
 H        -0.335100         5.103777         1.296010
 H         1.694029         2.129207         0.931928
 H         1.547146         3.532546         2.084318
 H        -0.639540         2.225315         2.652974
