19
Iteration:  4368charge 0 multiplicity 1
 O         0.132237         0.058276         0.291314
 C        -0.689822         1.097607         0.597667
 C        -2.186612         0.990537         0.368015
 C        -1.537934         2.040900        -0.298368
 C        -1.228238         3.247415         0.698046
 C        -0.331208         4.240524         0.010798
 O         0.813260         4.372626         0.935075
 C         1.093548         3.002313         1.387134
 C        -0.279719         2.261962         1.507583
 H         0.545540        -0.169139         1.087593
 H        -2.447078         0.204213        -0.257076
 H        -2.910734         1.248615         1.093694
 H        -1.696528         2.256784        -1.341142
 H        -1.961758         3.677284         1.316432
 H        -0.059201         3.951371        -1.037208
 H        -0.856092         5.240176         0.147104
 H         1.787500         2.519156         0.680358
 H         1.556652         3.251800         2.325191
 H        -0.562963         2.130247         2.619877
