19
Iteration:  4766charge 0 multiplicity 1
 O         0.352811         0.312910         0.279396
 C        -0.724833         1.140380         0.634454
 C        -2.178340         0.908919         0.681017
 C        -1.640180         2.001702        -0.286042
 C        -1.306496         3.276935         0.456398
 C        -0.331546         4.317340         0.130287
 O         0.917156         4.175431         0.781441
 C         1.032328         2.887920         1.473271
 C        -0.420004         2.341152         1.475665
 H         0.021589        -0.188778        -0.427428
 H        -2.385698        -0.012110         0.106511
 H        -2.642945         1.021465         1.573992
 H        -1.774406         1.797448        -1.374872
 H        -2.165032         3.827291         0.842744
 H        -0.028061         4.083625        -0.928682
 H        -0.632882         5.306283         0.257380
 H         1.690398         2.321222         0.738186
 H         1.653527         3.193542         2.421230
 H        -0.616880         2.131098         2.548241
