19
Iteration:  2340
 O         0.349222         0.399625         0.264510
 C        -0.709922         1.240673         0.723540
 C        -2.178756         0.884259         0.501334
 C        -1.563706         1.963714        -0.192238
 C        -1.371889         3.256772         0.742158
 C        -0.294897         4.431827         0.278797
 O         0.938112         3.873513         0.270393
 C         1.034671         2.955508         1.395929
 C        -0.448173         2.374998         1.664400
 H         0.017774        -0.409555        -0.130313
 H        -2.308656        -0.049503        -0.095828
 H        -2.882102         1.005855         1.316131
 H        -1.649982         2.010237        -1.257779
 H        -2.252763         3.716576         1.121647
 H        -0.640604         4.803354        -0.707279
 H        -0.392374         5.222449         1.086937
 H         1.729369         2.200483         1.252438
 H         1.384326         3.555965         2.285947
 H        -0.594818         2.059982         2.693345
