19
Iteration:   126
 O         0.282838         0.304050         0.193820
 C        -0.677517         1.186163         0.776597
 C        -2.146187         0.924404         0.547094
 C        -1.519674         2.070187        -0.226445
 C        -1.295871         3.262708         0.820892
 C        -0.472377         4.360857         0.307602
 O         0.853196         3.833086         0.152077
 C         1.046267         3.037387         1.411546
 C        -0.302729         2.380990         1.657642
 H         0.097365        -0.529056         0.514026
 H        -2.245946        -0.072155         0.007119
 H        -2.996562         1.231727         1.214439
 H        -1.096012         2.221694        -1.225789
 H        -2.177904         3.624442         1.287817
 H        -0.794130         4.791131        -0.745686
 H        -0.515278         5.183777         1.069653
 H         2.008960         2.421987         1.260999
 H         1.107364         3.809407         2.244957
 H        -0.537225         2.222002         2.781000
