19
Iteration:   121charge 0 multiplicity 1
 O         0.255684         0.284996         0.188327
 C        -0.706263         1.217559         0.775568
 C        -2.153640         0.881414         0.530255
 C        -1.516232         2.071430        -0.245716
 C        -1.287215         3.238409         0.797710
 C        -0.453909         4.385186         0.324434
 O         0.865741         3.831992         0.193392
 C         1.029665         3.092855         1.376885
 C        -0.269813         2.390265         1.678819
 H        -0.022628        -0.668630         0.575542
 H        -2.144282        -0.106402         0.121500
 H        -3.005703         1.015668         1.192065
 H        -1.156097         2.057337        -1.296479
 H        -2.208875         3.564598         1.388687
 H        -0.715520         4.832830        -0.585452
 H        -0.527032         5.215157         1.038808
 H         1.878843         2.475200         1.267315
 H         1.340145         3.844141         2.106075
 H        -0.483611         2.346369         2.710706
