19
Iteration:  2188charge 0 multiplicity 1
 O         0.387417         0.372461         0.252904
 C        -0.709044         1.195583         0.585795
 C        -2.143610         0.909197         0.598510
 C        -1.647593         2.107361        -0.193473
 C        -1.282674         3.273810         0.750703
 C        -0.408753         4.392128         0.208830
 O         0.941972         3.820675         0.334388
 C         1.020508         2.985814         1.455549
 C        -0.392703         2.310534         1.611248
 H         0.243312        -0.526310         0.526456
 H        -2.493961         0.260823        -0.274853
 H        -2.828469         0.954707         1.470831
 H        -1.926209         2.231383        -1.271714
 H        -2.139504         3.697749         1.218872
 H        -0.475114         4.634424        -0.860080
 H        -0.676650         5.303822         0.732516
 H         1.746003         2.275038         1.322507
 H         1.191099         3.602831         2.343080
 H        -0.526134         2.156756         2.678998
