19
Iteration:  3964charge 0 multiplicity 1
 O         0.194983         0.044193         0.268586
 C        -0.702686         1.116012         0.571601
 C        -2.210334         1.005621         0.552876
 C        -1.427503         2.004734        -0.354454
 C        -1.270077         3.217710         0.534372
 C        -0.373358         4.393783         0.168340
 O         0.890506         4.264094         0.837176
 C         1.077095         2.964278         1.394851
 C        -0.398039         2.347567         1.503067
 H         0.520819        -0.326967         1.146590
 H        -2.457399        -0.000636         0.207330
 H        -2.977231         1.575951         1.132055
 H        -1.373967         1.878566        -1.422749
 H        -2.276804         3.507103         0.899965
 H        -0.441272         4.644833        -0.898269
 H        -0.739856         5.321093         0.566167
 H         1.824189         2.264078         0.825636
 H         1.612448         3.202182         2.410865
 H        -0.790922         2.183372         2.493029
