19
Iteration:  4739charge 0 multiplicity 1
 O         0.364920         0.208877         0.317330
 C        -0.708791         1.158098         0.612074
 C        -2.184554         0.850023         0.641339
 C        -1.579897         2.056101        -0.280862
 C        -1.283324         3.279787         0.636012
 C        -0.318314         4.304724         0.014739
 O         0.876414         4.265816         0.851171
 C         1.002907         2.855673         1.373807
 C        -0.421255         2.358961         1.521339
 H         0.158789        -0.066385        -0.563912
 H        -2.494151         0.023624        -0.021049
 H        -3.066061         1.225929         1.307558
 H        -1.706873         2.142824        -1.352110
 H        -2.147533         3.799113         1.182473
 H         0.018730         3.755372        -0.890542
 H        -0.553408         5.397371        -0.268098
 H         1.375262         2.381238         0.490233
 H         1.701904         2.940039         2.154396
 H        -0.616318         2.229463         2.564657
