19
Iteration:  4101charge 0 multiplicity 1
 O         0.212362         0.092237         0.200760
 C        -0.646298         1.153505         0.538659
 C        -2.142858         0.958128         0.687677
 C        -1.592057         1.980857        -0.283709
 C        -1.263779         3.231094         0.453063
 C        -0.217516         4.277243         0.031367
 O         0.843610         4.364249         0.991357
 C         1.018820         2.978729         1.491864
 C        -0.384181         2.352282         1.396837
 H        -0.153215        -0.728411         0.436167
 H        -2.574158         0.078580         0.264914
 H        -2.767920         1.318248         1.512715
 H        -1.893391         1.879434        -1.325240
 H        -2.110072         3.717252         0.837403
 H         0.164066         4.262830        -1.062329
 H        -0.663856         5.363203         0.116722
 H         1.745125         2.185695         0.922228
 H         1.329057         3.142167         2.487769
 H        -0.625016         2.082681         2.453674
