19
Iteration:  2931
 O         0.378076         0.390678         0.384773
 C        -0.733818         1.210717         0.640802
 C        -2.172384         0.935642         0.497532
 C        -1.626776         2.054681        -0.272028
 C        -1.310062         3.261955         0.712048
 C        -0.376033         4.332252         0.231525
 O         0.954205         3.934816         0.410534
 C         1.013517         2.896597         1.460188
 C        -0.366590         2.323401         1.550475
 H         0.326660        -0.114879        -0.411655
 H        -2.557457         0.059002        -0.080521
 H        -2.753346         0.887274         1.439941
 H        -1.616711         2.202921        -1.367892
 H        -2.247137         3.723624         1.333113
 H        -0.724246         4.526851        -0.875701
 H        -0.544194         5.368661         0.659305
 H         1.664604         2.206394         1.139703
 H         1.133559         3.377551         2.468114
 H        -0.514637         2.149674         2.623253
