19
Iteration:  2012charge 0 multiplicity 1
 O         0.243471         0.108768         0.299639
 C        -0.653042         1.167137         0.577659
 C        -2.106923         0.891867         0.546826
 C        -1.671885         2.122597        -0.235836
 C        -1.390894         3.365541         0.687701
 C        -0.385383         4.456885         0.260510
 O         0.974590         3.937108         0.319564
 C         1.018153         3.095722         1.483506
 C        -0.274219         2.302806         1.571290
 H         0.061610        -0.622022         1.032625
 H        -2.225097         0.018029        -0.109787
 H        -2.750376         0.792372         1.460981
 H        -1.782802         2.134792        -1.321846
 H        -2.321618         3.567760         1.176300
 H        -0.506970         4.982393        -0.684395
 H        -0.392982         5.172872         1.089709
 H         1.791832         2.450432         1.349843
 H         1.273361         3.778335         2.368130
 H        -0.453178         1.935390         2.514048
