19
Iteration:  2331charge 0 multiplicity 1
 O         0.357024         0.406560         0.267192
 C        -0.706457         1.153622         0.707700
 C        -2.174913         0.830372         0.538043
 C        -1.598506         2.040706        -0.238247
 C        -1.386272         3.293204         0.715863
 C        -0.362212         4.476630         0.371414
 O         0.974167         3.830903         0.259326
 C         0.995374         2.905475         1.380102
 C        -0.385168         2.442509         1.610801
 H         0.048190        -0.475203         0.094252
 H        -2.281017        -0.097941        -0.057551
 H        -2.903047         0.936818         1.444547
 H        -1.376267         1.871715        -1.267571
 H        -2.184838         3.671255         1.211047
 H        -0.473174         4.892197        -0.684430
 H        -0.370139         5.320712         1.066687
 H         1.793138         2.216726         1.281481
 H         1.225315         3.576877         2.271846
 H        -0.745529         2.354684         2.674581
