19
Iteration:  3416charge 0 multiplicity 1
 O         0.277257         0.284607         0.269982
 C        -0.715056         1.151823         0.577645
 C        -2.098690         0.845460         0.612646
 C        -1.580157         2.061004        -0.295090
 C        -1.360223         3.266420         0.620583
 C        -0.410957         4.365649         0.098999
 O         0.992143         3.963287         0.570848
 C         1.000516         2.953775         1.554959
 C        -0.426754         2.409174         1.613537
 H         1.124618         0.615390        -0.282782
 H        -2.548613         0.042664        -0.051548
 H        -2.823975         1.242926         1.334480
 H        -1.570223         2.004880        -1.421658
 H        -2.254306         3.659645         1.102926
 H        -0.346460         4.742086        -0.985729
 H        -0.589334         5.245686         0.613831
 H         1.769480         2.066286         1.221071
 H         1.419041         3.307084         2.482216
 H        -0.786503         2.238673         2.636289
