19
Iteration:   944charge 0 multiplicity 1
 O         0.358734         0.379757         0.324153
 C        -0.746176         1.197726         0.754672
 C        -2.143269         0.880571         0.489538
 C        -1.530167         2.057459        -0.222866
 C        -1.316632         3.208168         0.700438
 C        -0.370885         4.433095         0.460777
 O         0.883581         3.896041         0.124414
 C         1.035600         2.936882         1.317596
 C        -0.402390         2.390520         1.650270
 H        -0.067099        -0.562893         0.432214
 H        -2.271627         0.095627        -0.238928
 H        -3.075445         1.068606         1.161571
 H        -1.524042         1.897883        -1.300166
 H        -2.106360         3.591356         1.298613
 H        -0.667091         5.116964        -0.323926
 H        -0.491763         5.053502         1.412614
 H         1.751275         2.030002         1.103559
 H         1.414949         3.377943         2.252817
 H        -0.538122         2.444311         2.702329
