19
Iteration:  1532charge 0 multiplicity 1
 O         0.338871         0.430138         0.292102
 C        -0.707822         1.265628         0.669835
 C        -2.139805         0.860580         0.438105
 C        -1.582913         2.210963        -0.182744
 C        -1.358448         3.280149         0.904321
 C        -0.394290         4.312992         0.285247
 O         0.879497         3.687772         0.210256
 C         1.064603         3.010486         1.415219
 C        -0.378262         2.322410         1.610025
 H         0.033745        -0.395630         0.490840
 H        -2.038601         0.011770        -0.262901
 H        -2.955858         0.881138         1.055808
 H        -1.467030         2.463507        -1.221326
 H        -2.212518         3.735525         1.387643
 H        -0.668680         4.516161        -0.751973
 H        -0.265413         5.305048         0.775425
 H         1.830075         2.263162         1.319537
 H         1.273997         3.770372         2.260670
 H        -0.450633         2.176328         2.717226
