19
Iteration:    84
 O         0.335556         0.052026         0.300313
 C        -0.652952         1.132619         0.631978
 C        -2.154638         0.985355         0.603006
 C        -1.582523         2.152901        -0.227367
 C        -1.298313         3.274992         0.755952
 C        -0.469525         4.478884         0.319816
 O         0.896941         4.022380         0.289160
 C         0.981384         3.049734         1.293825
 C        -0.310307         2.298398         1.538202
 H         0.279318        -0.712007         1.012004
 H        -2.268990         0.038883         0.046365
 H        -2.681660         1.186330         1.539468
 H        -1.592754         2.121616        -1.312685
 H        -2.162624         3.538472         1.440959
 H        -0.726811         4.733443        -0.733809
 H        -0.478844         5.250018         1.107125
 H         1.688957         2.247388         0.987011
 H         1.112923         3.485692         2.321283
 H        -0.434624         2.221209         2.656735
