19
Iteration:   520charge 0 multiplicity 1
 O         0.290146         0.416042         0.140085
 C        -0.667911         1.235643         0.621239
 C        -2.060968         0.789347         0.671183
 C        -1.735902         2.084035        -0.125843
 C        -1.318047         3.294692         0.734345
 C        -0.286857         4.436105         0.261529
 O         0.958939         3.716618         0.233001
 C         0.974843         3.057968         1.462786
 C        -0.440197         2.352829         1.612812
 H         0.565116        -0.139033         0.806001
 H        -2.163262         0.076490        -0.111367
 H        -2.888300         0.625601         1.386278
 H        -1.824093         2.021022        -1.192216
 H        -2.278860         3.756141         1.142617
 H        -0.435188         4.975168        -0.739170
 H        -0.165576         5.134291         1.070532
 H         1.708218         2.316558         1.352554
 H         1.149332         3.723386         2.246860
 H        -0.621849         2.153624         2.692593
