19
Iteration:  1741charge 0 multiplicity 1
 O         0.396793         0.241423         0.380100
 C        -0.628319         1.211187         0.584588
 C        -2.202651         0.936476         0.378078
 C        -1.631214         2.228711        -0.197523
 C        -1.330463         3.332245         0.898697
 C        -0.383876         4.447471         0.277504
 O         0.864076         3.776820         0.193343
 C         1.021770         2.990434         1.405200
 C        -0.354277         2.253627         1.644894
 H         0.157388        -0.542870         1.021445
 H        -2.303523         0.160984        -0.356048
 H        -2.842577         0.897161         1.210278
 H        -1.719986         2.432080        -1.336430
 H        -2.180396         3.681791         1.404003
 H        -0.777692         4.736061        -0.652264
 H        -0.178564         5.345912         0.827524
 H         1.732973         2.207459         1.309439
 H         1.200878         3.666144         2.236837
 H        -0.539959         2.092898         2.748199
