19
Iteration:  1635
 O         0.252039         0.251589         0.139698
 C        -0.642152         1.178488         0.572855
 C        -2.160201         1.035307         0.632547
 C        -1.557422         2.167478        -0.226898
 C        -1.311921         3.281840         0.775347
 C        -0.462378         4.303809         0.085811
 O         0.926263         3.934633         0.424399
 C         1.023498         2.994750         1.561014
 C        -0.316008         2.218618         1.565054
 H         0.734477        -0.220903         0.985029
 H        -2.388013         0.139257        -0.001033
 H        -2.704581         1.012355         1.632433
 H        -1.982641         2.307318        -1.235711
 H        -2.132845         3.780316         1.463201
 H        -0.597586         4.287505        -0.998468
 H        -0.501233         5.357720         0.431822
 H         1.924261         2.235277         1.529440
 H         1.228362         3.702213         2.482725
 H        -0.703453         2.030039         2.578237
