19
Iteration:  4832
 O         0.256277         0.199946         0.236918
 C        -0.627114         1.237879         0.613769
 C        -2.147988         0.890157         0.439533
 C        -1.568991         2.112341        -0.266944
 C        -1.276136         3.243011         0.750950
 C        -0.383753         4.231663         0.105264
 O         0.914128         4.144899         0.598873
 C         0.978342         3.037777         1.508853
 C        -0.344942         2.327777         1.611504
 H        -0.048432        -0.667053         0.696232
 H        -2.372032        -0.056711        -0.111071
 H        -2.696403         0.927127         1.283316
 H        -1.412044         2.301631        -1.363928
 H        -2.202652         3.712519         1.149907
 H        -0.351107         3.998435        -1.038560
 H        -0.761258         5.217371         0.228236
 H         1.578276         2.301909         0.932219
 H         1.324458         3.406266         2.578967
 H        -0.724037         2.159598         2.616269
