19
Iteration:   705charge 0 multiplicity 1
 O         0.286370         0.382399         0.227839
 C        -0.635379         1.219625         0.648154
 C        -2.158172         0.901611         0.540387
 C        -1.621134         2.065054        -0.200562
 C        -1.304355         3.254790         0.823046
 C        -0.404275         4.376194         0.285641
 O         0.945045         3.849835         0.247190
 C         1.030747         2.979862         1.392620
 C        -0.369834         2.324107         1.597638
 H         0.247859        -0.462451         0.857569
 H        -2.582702        -0.005839         0.011515
 H        -2.767880         1.149835         1.400508
 H        -1.610873         2.095510        -1.291887
 H        -2.127553         3.806660         1.424271
 H        -0.664504         4.701746        -0.748242
 H        -0.420113         5.288802         0.983556
 H         1.794272         2.288304         1.178388
 H         1.066752         3.681873         2.272939
 H        -0.474803         2.059917         2.748694
