19
Iteration:  1606
 O         0.224796         0.319807         0.019217
 C        -0.697811         1.160309         0.675826
 C        -2.216865         0.850274         0.615401
 C        -1.596431         2.006280        -0.178016
 C        -1.382199         3.250203         0.739674
 C        -0.337255         4.313057         0.205606
 O         1.070178         3.934840         0.398871
 C         1.051941         3.095940         1.531567
 C        -0.392767         2.454300         1.611751
 H         0.474769        -0.453887         0.599714
 H        -2.430036        -0.093577        -0.014284
 H        -2.901595         0.789960         1.560171
 H        -1.583725         1.879246        -1.231273
 H        -2.130099         3.855734         1.230962
 H        -0.563693         4.518049        -0.920671
 H        -0.411481         5.255146         0.738752
 H         1.740452         2.277314         1.430428
 H         1.277407         3.745816         2.318750
 H        -0.721751         2.366105         2.659667
