19
Iteration:  2184charge 0 multiplicity 1
 O         0.363964         0.377505         0.245175
 C        -0.720415         1.203530         0.616033
 C        -2.152798         0.888290         0.560114
 C        -1.619833         2.113424        -0.166606
 C        -1.341559         3.252950         0.759448
 C        -0.409644         4.417820         0.177220
 O         0.984125         3.832271         0.304290
 C         1.014248         3.002820         1.489512
 C        -0.368653         2.287882         1.619276
 H         0.334502        -0.593954         0.470317
 H        -2.384667         0.163622        -0.164694
 H        -2.824960         0.953400         1.392757
 H        -1.916408         2.267858        -1.208897
 H        -2.174156         3.812245         1.218743
 H        -0.610566         4.657313        -0.873792
 H        -0.609116         5.310593         0.789997
 H         1.745204         2.109021         1.301480
 H         1.277479         3.610826         2.384584
 H        -0.605270         2.128055         2.725725
