19
Iteration:  2174
 O         0.316924         0.390012         0.188432
 C        -0.656017         1.175611         0.713103
 C        -2.176873         0.834780         0.474161
 C        -1.597389         2.119452        -0.147985
 C        -1.429460         3.306447         0.811541
 C        -0.380789         4.358681         0.175686
 O         1.028507         3.879127         0.236963
 C         0.983326         2.990764         1.511316
 C        -0.369951         2.356241         1.667282
 H         0.078591        -0.591455         0.498876
 H        -2.214584        -0.115546         0.030382
 H        -2.844735         0.931491         1.313005
 H        -1.613067         2.229908        -1.271452
 H        -2.308719         3.649519         1.305966
 H        -0.667499         4.623309        -0.833028
 H        -0.241971         5.212359         0.779012
 H         1.848929         2.278356         1.286415
 H         1.330764         3.517700         2.410247
 H        -0.753870         2.035852         2.697499
