19
Iteration:  2230
 O         0.261961         0.268904         0.169271
 C        -0.661392         1.232703         0.658121
 C        -2.120976         0.872114         0.604666
 C        -1.547048         2.073792        -0.221713
 C        -1.308042         3.237668         0.650288
 C        -0.391384         4.417251         0.283439
 O         0.931118         3.872738         0.332036
 C         1.000151         3.040654         1.466046
 C        -0.349529         2.387783         1.661542
 H        -0.032289        -0.551419         0.504040
 H        -2.449788         0.163492        -0.159031
 H        -2.747880         0.909741         1.469615
 H        -1.795858         1.925519        -1.309651
 H        -2.161697         3.624531         1.089757
 H        -0.663673         4.759755        -0.711758
 H        -0.404539         5.229022         0.977707
 H         1.867221         2.413602         1.290449
 H         1.192952         3.675795         2.374818
 H        -0.738592         2.215443         2.709979
