19
Iteration:  3362
 O         0.207480         0.200693         0.202722
 C        -0.631122         1.153536         0.618145
 C        -2.144726         0.938340         0.401687
 C        -1.518930         2.108321        -0.228614
 C        -1.346816         3.247710         0.731449
 C        -0.377855         4.279965         0.247148
 O         0.916258         3.757258         0.323115
 C         0.934994         3.255764         1.647670
 C        -0.323250         2.367236         1.680763
 H         1.182367         0.479250        -0.058092
 H        -2.100751         0.023724        -0.216782
 H        -2.849831         0.965394         1.256226
 H        -1.617228         2.227048        -1.327326
 H        -2.203104         3.658954         1.126386
 H        -0.597216         4.541814        -0.846971
 H        -0.333611         5.212249         0.860807
 H         1.961113         2.830269         1.923662
 H         0.779428         4.041544         2.476339
 H        -0.703269         2.241630         2.701648
