19
Iteration:  3628charge 0 multiplicity 1
 O         0.182466        -0.008251         0.318975
 C        -0.650427         1.114491         0.615905
 C        -2.170311         0.963023         0.600751
 C        -1.582080         2.009366        -0.267065
 C        -1.301518         3.266159         0.518223
 C        -0.297442         4.379068         0.048933
 O         0.872361         4.299295         0.905236
 C         1.033347         2.994869         1.332945
 C        -0.374357         2.340360         1.491683
 H         0.910692         0.331846        -0.123648
 H        -2.663003         0.018039         0.236727
 H        -2.548980         1.286937         1.615615
 H        -1.476113         1.697349        -1.308673
 H        -2.216627         3.763091         0.974722
 H         0.113155         4.244375        -0.998669
 H        -0.843306         5.364464         0.268197
 H         1.563305         2.569621         0.356869
 H         1.646456         2.895353         2.228019
 H        -0.647409         2.142105         2.580162
