19
Iteration:  2428charge 0 multiplicity 1
 O         0.245100         0.275888         0.189398
 C        -0.652313         1.205458         0.672959
 C        -2.162027         0.884881         0.622363
 C        -1.548862         2.033585        -0.222902
 C        -1.288963         3.289821         0.646663
 C        -0.406844         4.423628         0.255079
 O         0.928796         3.850424         0.272368
 C         1.006205         2.973827         1.470192
 C        -0.433980         2.366307         1.743489
 H         0.847876         0.723026        -0.364089
 H        -2.367492        -0.027843         0.152963
 H        -2.752916         1.113061         1.528560
 H        -1.353239         1.924678        -1.288965
 H        -2.337037         3.618503         0.980100
 H        -0.488480         4.855472        -0.783751
 H        -0.504953         5.201709         1.043076
 H         1.771593         2.287406         1.382258
 H         1.281912         3.559045         2.384643
 H        -0.433243         2.360201         2.810518
