19
Iteration:    21
 O         0.265446         0.223780         0.136581
 C        -0.760119         1.096105         0.751818
 C        -2.163418         0.703268         0.613879
 C        -1.463810         2.105252        -0.119135
 C        -1.303848         3.386596         0.735032
 C        -0.426783         4.535059         0.228760
 O         0.974970         3.989857         0.246598
 C         1.017714         2.939785         1.376129
 C        -0.411496         2.426682         1.682201
 H         0.321107        -0.588157         0.799868
 H        -2.287923         0.042029        -0.258957
 H        -2.837440         0.560675         1.442273
 H        -1.365947         2.036846        -1.211136
 H        -2.299571         3.741776         1.218424
 H        -0.646474         4.793298        -0.774389
 H        -0.453243         5.370902         1.031324
 H         1.679980         2.274978         0.900075
 H         1.402929         3.455576         2.263551
 H        -0.607691         2.359578         2.718403
