19
Iteration:  2113
 O         0.384110         0.339972         0.266183
 C        -0.675009         1.183400         0.566824
 C        -2.121420         0.993140         0.586267
 C        -1.591277         2.150852        -0.229659
 C        -1.279683         3.274048         0.755944
 C        -0.407614         4.317348         0.318750
 O         0.946032         3.739186         0.226805
 C         0.914588         3.054991         1.461286
 C        -0.410067         2.306274         1.557585
 H         0.582710        -0.153189         1.085040
 H        -2.570353         0.160223        -0.042657
 H        -2.717511         1.084849         1.541145
 H        -1.934121         2.461405        -1.245246
 H        -2.264745         3.474217         1.280107
 H        -0.643360         4.858192        -0.612788
 H        -0.402505         5.097322         1.174894
 H         1.678637         2.339711         1.277259
 H         1.065521         3.728551         2.365988
 H        -0.613055         2.090511         2.561789
