19
Iteration:  2458charge 0 multiplicity 1
 O         0.331173         0.232124         0.291565
 C        -0.629138         1.257307         0.569345
 C        -2.154511         0.923518         0.546549
 C        -1.651931         2.156985        -0.196266
 C        -1.339235         3.260170         0.810852
 C        -0.417275         4.379468         0.187869
 O         0.940553         3.812467         0.301500
 C         0.961431         2.960423         1.420676
 C        -0.383656         2.352247         1.658271
 H         1.259193         0.726887         0.376933
 H        -2.329365         0.021347         0.014690
 H        -2.858294         1.023686         1.312746
 H        -1.853276         2.309123        -1.235702
 H        -2.296203         3.752632         1.334168
 H        -0.551288         4.486234        -0.866358
 H        -0.474080         5.344865         0.690975
 H         1.896893         2.233641         1.306950
 H         1.192886         3.533349         2.341341
 H        -0.355670         2.138797         2.755964
