19
Iteration:  1628
 O         0.232341         0.281119         0.118947
 C        -0.669865         1.164382         0.611411
 C        -2.147684         0.944703         0.624448
 C        -1.572722         2.167306        -0.159467
 C        -1.268904         3.246840         0.752890
 C        -0.392740         4.377224         0.070601
 O         0.945727         3.943933         0.422242
 C         0.966629         2.992541         1.546549
 C        -0.308039         2.227752         1.620144
 H         0.772618        -0.286714         0.747236
 H        -2.495783         0.017907         0.040715
 H        -2.905100         1.166481         1.506954
 H        -1.816954         2.274405        -1.188776
 H        -2.063364         3.812453         1.255905
 H        -0.631823         4.314642        -1.072393
 H        -0.566217         5.386043         0.411838
 H         1.885741         2.497764         1.327904
 H         1.027084         3.573996         2.406683
 H        -0.722065         1.967277         2.593536
