19
Iteration:  3426
 O         0.279418         0.329422         0.288709
 C        -0.692367         1.221429         0.636896
 C        -2.221179         0.829235         0.494915
 C        -1.579375         1.961977        -0.270561
 C        -1.336900         3.257152         0.639426
 C        -0.339435         4.359256         0.122437
 O         1.001178         4.033589         0.581500
 C         0.994929         2.901988         1.485383
 C        -0.406861         2.372662         1.629043
 H         1.067287         0.935839        -0.036162
 H        -2.516636        -0.174187         0.102990
 H        -2.821755         1.116176         1.365549
 H        -1.654380         2.133215        -1.358295
 H        -2.265169         3.681066         1.133452
 H        -0.399491         4.402304        -1.010548
 H        -0.597607         5.269184         0.555796
 H         1.659030         2.156042         0.959038
 H         1.392467         3.261963         2.354178
 H        -0.768487         2.339158         2.661811
