19
Iteration:  4329charge 0 multiplicity 1
 O         0.241703         0.148067         0.260501
 C        -0.662018         1.146431         0.634437
 C        -2.166150         0.977579         0.559148
 C        -1.533700         1.927745        -0.321969
 C        -1.286720         3.217793         0.446078
 C        -0.206381         4.414474         0.141666
 O         0.855722         4.329035         1.035112
 C         0.998239         2.871620         1.256654
 C        -0.451632         2.345512         1.484582
 H         0.264572        -0.543706         0.984311
 H        -2.427896        -0.055826         0.121392
 H        -2.834297         1.292413         1.481571
 H        -1.609046         1.688507        -1.400003
 H        -2.187292         3.680656         1.044909
 H         0.299052         4.518886        -0.889479
 H        -0.821382         5.286532         0.345186
 H         1.211242         2.462578         0.249882
 H         1.811026         2.599332         2.023304
 H        -0.954192         2.410691         2.412404
