19
Iteration:  3909charge 0 multiplicity 1
 O         0.226652         0.149903         0.410742
 C        -0.671450         1.151111         0.624491
 C        -2.119429         0.958199         0.355819
 C        -1.543949         2.111543        -0.293053
 C        -1.327938         3.241336         0.640904
 C        -0.316016         4.307987         0.100179
 O         0.856034         4.279469         0.865668
 C         1.035090         2.880177         1.297881
 C        -0.321388         2.348896         1.572847
 H        -0.291190        -0.749255         0.416339
 H        -2.385593         0.125388        -0.266720
 H        -2.836323         1.135195         1.161425
 H        -1.593547         2.146375        -1.378614
 H        -2.235268         3.517829         1.131335
 H        -0.172769         3.898920        -0.898270
 H        -0.625282         5.310896         0.132392
 H         1.436454         2.337342         0.423134
 H         1.731398         3.010734         2.169208
 H        -0.557886         2.195373         2.614642
