19
Iteration:  2322
 O         0.374110         0.376478         0.273153
 C        -0.735851         1.170485         0.702081
 C        -2.114060         0.780809         0.597957
 C        -1.595694         2.141315        -0.254117
 C        -1.313516         3.342712         0.687272
 C        -0.416338         4.443845         0.360468
 O         0.963418         3.787544         0.262096
 C         0.991141         2.972987         1.407290
 C        -0.431591         2.369832         1.540417
 H         0.156255        -0.533734         0.389780
 H        -2.454195         0.016247        -0.076237
 H        -2.949144         0.923944         1.434906
 H        -1.378429         2.163213        -1.323880
 H        -2.234425         3.585771         1.235666
 H        -0.502877         5.069828        -0.572181
 H        -0.416413         5.122886         1.198540
 H         1.684274         2.124818         1.123028
 H         1.295879         3.438271         2.374283
 H        -0.595611         2.575416         2.640368
