19
Iteration:  1380
 O         0.370256         0.300014         0.254073
 C        -0.649460         1.167457         0.591026
 C        -2.123811         0.969143         0.598479
 C        -1.638745         2.147533        -0.204529
 C        -1.325452         3.290686         0.776960
 C        -0.374934         4.342928         0.264298
 O         0.923302         3.841296         0.301726
 C         0.968388         2.993891         1.384413
 C        -0.406939         2.315354         1.569831
 H         0.388452        -0.469266         0.732207
 H        -2.522783         0.116224         0.128256
 H        -2.549750         1.145625         1.551771
 H        -1.945734         2.382066        -1.234039
 H        -2.306712         3.714419         1.197943
 H        -0.430359         4.621126        -0.753422
 H        -0.445301         5.296898         0.858721
 H         1.852074         2.291462         1.358822
 H         1.038329         3.630785         2.326617
 H        -0.548989         2.058165         2.656797
