19
Iteration:  3275
 O         0.356679         0.228800         0.296824
 C        -0.632834         1.189479         0.630332
 C        -2.127647         0.915440         0.531963
 C        -1.527081         2.122033        -0.284809
 C        -1.321368         3.242490         0.628743
 C        -0.361080         4.458910         0.325495
 O         0.913230         3.777596         0.321478
 C         0.886570         3.109254         1.586182
 C        -0.413504         2.317663         1.611889
 H         0.202246        -0.064918        -0.649755
 H        -2.289793         0.120313        -0.184565
 H        -2.906708         1.021223         1.312204
 H        -1.527264         2.100171        -1.360590
 H        -2.241179         3.528747         1.107214
 H        -0.479596         4.931286        -0.676687
 H        -0.548907         5.287821         1.033908
 H         1.647842         2.459478         1.550508
 H         1.165505         3.726495         2.477136
 H        -0.761110         2.289851         2.634500
