19
Iteration:  4572charge 0 multiplicity 1
 O         0.210543         0.158275         0.327450
 C        -0.717978         1.119001         0.669477
 C        -2.144242         0.866175         0.521526
 C        -1.635962         2.049511        -0.344435
 C        -1.230763         3.263101         0.575177
 C        -0.308740         4.317908         0.110279
 O         0.892157         4.263619         0.830613
 C         1.032133         2.952699         1.336170
 C        -0.350927         2.313010         1.555945
 H         1.009238         0.291012         0.750961
 H        -2.407416         0.039247        -0.183295
 H        -2.987095         1.223161         1.185487
 H        -1.606570         1.993029        -1.417210
 H        -2.149314         3.652597         1.114314
 H        -0.218936         4.380634        -1.053210
 H        -0.781993         5.269625         0.316210
 H         1.506557         2.485091         0.365418
 H         1.592404         2.925236         2.248997
 H        -0.715458         2.192091         2.565425
