19
Iteration:    23
 O         0.254105         0.225080         0.139332
 C        -0.748818         1.102196         0.755273
 C        -2.149879         0.695751         0.599306
 C        -1.462221         2.082258        -0.113431
 C        -1.307620         3.385212         0.740103
 C        -0.407811         4.529712         0.239402
 O         0.968648         4.000316         0.256021
 C         1.013784         2.944590         1.355674
 C        -0.415141         2.429736         1.680413
 H         0.309600        -0.594543         0.812665
 H        -2.326583         0.033618        -0.229257
 H        -2.894573         0.649937         1.388465
 H        -1.459002         1.996441        -1.189070
 H        -2.229021         3.731105         1.204866
 H        -0.673106         4.867064        -0.778282
 H        -0.462215         5.396760         0.946774
 H         1.726661         2.277572         0.919587
 H         1.427992         3.391555         2.258669
 H        -0.639425         2.388881         2.744113
