19
Iteration:   162charge 0 multiplicity 1
 O         0.483875         0.367346         0.218782
 C        -0.641515         1.283289         0.587927
 C        -2.115067         0.896094         0.611621
 C        -1.678300         2.180957        -0.166835
 C        -1.335659         3.334300         0.839885
 C        -0.407007         4.368123         0.218982
 O         0.810375         3.679872         0.203518
 C         0.996688         2.897523         1.435786
 C        -0.418764         2.377148         1.619730
 H         0.615561        -0.200780         0.924065
 H        -2.336027         0.023180         0.092774
 H        -2.758321         1.092141         1.435118
 H        -1.689936         2.379653        -1.209478
 H        -2.162695         3.889373         1.394575
 H        -0.703211         4.596501        -0.783530
 H        -0.320533         5.383285         0.760882
 H         1.762535         2.192079         1.294912
 H         1.301095         3.469346         2.381679
 H        -0.610257         2.140264         2.666306
