19
Iteration:  1968
 O         0.306491         0.371164         0.227924
 C        -0.636354         1.192364         0.733627
 C        -2.195967         1.045415         0.482210
 C        -1.414316         2.077997        -0.204263
 C        -1.397468         3.222827         0.727154
 C        -0.433319         4.334556         0.257813
 O         0.853806         3.792393         0.276763
 C         1.032296         2.963782         1.399945
 C        -0.331614         2.360677         1.695525
 H         0.131290        -0.569939         0.680782
 H        -2.584445         0.045355         0.124418
 H        -2.843682         1.404509         1.288240
 H        -1.356452         2.241050        -1.277653
 H        -2.309890         3.729653         1.038450
 H        -0.529681         4.661102        -0.778953
 H        -0.518850         5.139380         0.967599
 H         1.823596         2.346287         1.196001
 H         1.251749         3.573263         2.349899
 H        -0.495040         2.213727         2.717152
