19
Iteration:   128charge 0 multiplicity 1
 O         0.291908         0.320135         0.196623
 C        -0.663185         1.176744         0.769488
 C        -2.144904         0.937801         0.548949
 C        -1.514287         2.071401        -0.210795
 C        -1.300958         3.262576         0.824003
 C        -0.477072         4.359987         0.290062
 O         0.849029         3.832479         0.139290
 C         1.056922         3.022261         1.421196
 C        -0.321049         2.371225         1.655557
 H         0.130289        -0.613741         0.542010
 H        -2.305608         0.025243        -0.013653
 H        -2.933824         1.280929         1.208283
 H        -1.127078         2.258651        -1.176107
 H        -2.235823         3.663630         1.289021
 H        -0.795914         4.726591        -0.700994
 H        -0.489090         5.181343         1.073359
 H         1.970340         2.437490         1.277174
 H         1.048102         3.755934         2.284790
 H        -0.530956         2.189877         2.741008
