19
Iteration:  4976charge 0 multiplicity 1
 O         0.472598         0.370990         0.473370
 C        -0.656996         1.197520         0.625790
 C        -2.127217         0.916171         0.410478
 C        -1.453963         2.152116        -0.256706
 C        -1.442375         3.304348         0.710515
 C        -0.426958         4.390399         0.338749
 O         0.898407         3.728638         0.284247
 C         0.969028         2.912994         1.432212
 C        -0.491632         2.422834         1.602783
 H         0.351391        -0.153332        -0.396326
 H        -2.321003         0.349049        -0.427244
 H        -2.886328         0.932036         1.142116
 H        -1.417805         2.233412        -1.331729
 H        -2.469397         3.624592         1.025254
 H        -0.721536         4.833315        -0.672316
 H        -0.425459         5.026724         1.249431
 H         1.704607         2.102923         1.335489
 H         1.197200         3.392671         2.439706
 H        -0.768510         2.280892         2.645843
