19
Iteration:   830
 O         0.292111         0.231751         0.122998
 C        -0.612666         1.311599         0.519144
 C        -2.133102         0.942962         0.690679
 C        -1.688387         2.012210        -0.219891
 C        -1.327736         3.294030         0.733240
 C        -0.394992         4.352888         0.270092
 O         0.969719         3.844038         0.317805
 C         0.964367         3.054876         1.513219
 C        -0.375038         2.358479         1.575973
 H         0.589498        -0.134228         1.075164
 H        -2.204831        -0.066154         0.302996
 H        -2.568997         1.106804         1.643752
 H        -1.953799         2.090551        -1.237533
 H        -2.208002         3.619768         1.219539
 H        -0.446524         4.670580        -0.787934
 H        -0.400535         5.330959         0.815026
 H         1.764485         2.341626         1.394975
 H         1.333299         3.636253         2.376807
 H        -0.673923         2.039150         2.631073
