19
Iteration:  4937charge 0 multiplicity 1
 O         0.360250         0.282933         0.359295
 C        -0.698659         1.192323         0.719591
 C        -2.059757         0.933547         0.275925
 C        -1.435513         2.244384        -0.214663
 C        -1.386778         3.269693         0.849272
 C        -0.467472         4.300659         0.262637
 O         0.889427         3.738338         0.233681
 C         0.907128         3.086487         1.524212
 C        -0.378566         2.344858         1.633201
 H        -0.154938        -0.493493         0.200662
 H        -2.048802         0.269290        -0.688288
 H        -2.980326         0.801984         0.997900
 H        -1.074429         2.340630        -1.267327
 H        -2.329814         3.588526         1.303232
 H        -0.554805         4.588330        -0.750049
 H        -0.396824         5.265093         0.826597
 H         1.874006         2.580335         1.769961
 H         1.002728         3.891171         2.267402
 H        -0.484438         2.133739         2.742916
