19
Iteration:  2724charge 0 multiplicity 1
 O         0.179081         0.221546         0.224759
 C        -0.666820         1.247821         0.635062
 C        -2.081965         0.892558         0.620972
 C        -1.496584         2.099671        -0.221205
 C        -1.325623         3.257157         0.796201
 C        -0.432293         4.354791         0.212805
 O         0.956307         3.839657         0.260574
 C         0.953577         3.086719         1.447214
 C        -0.331446         2.362426         1.613256
 H         1.030037         0.139314         0.514629
 H        -2.232262         0.145858        -0.154778
 H        -2.852018         0.900589         1.442150
 H        -1.621204         2.057872        -1.288642
 H        -2.220643         3.614317         1.198772
 H        -0.784950         4.685780        -0.841646
 H        -0.592694         5.183587         0.909139
 H         1.943998         2.404758         1.648179
 H         0.867472         3.776612         2.313849
 H        -0.521175         2.266793         2.725004
