19
Iteration:   600charge 0 multiplicity 1
 O         0.245616         0.131265         0.302081
 C        -0.592931         1.121697         0.708153
 C        -2.120958         0.919566         0.500170
 C        -1.509886         2.129222        -0.136025
 C        -1.308373         3.298838         0.732940
 C        -0.388052         4.438564         0.338673
 O         0.878738         3.954378         0.202627
 C         0.961645         3.036320         1.320542
 C        -0.319595         2.363508         1.654535
 H        -0.298982        -0.614662         0.275348
 H        -2.378207         0.132311        -0.258319
 H        -2.830924         0.878482         1.306919
 H        -1.768750         2.138047        -1.243017
 H        -2.171298         3.697540         1.180833
 H        -0.719094         5.017739        -0.540404
 H        -0.414760         5.116878         1.189819
 H         1.840629         2.391106         1.220829
 H         1.179678         3.552230         2.183408
 H        -0.473986         2.399550         2.668737
