19
Iteration:  4282
 O         0.274204         0.141829         0.449021
 C        -0.673047         1.163180         0.603832
 C        -2.196743         0.953444         0.442025
 C        -1.632488         2.088189        -0.379718
 C        -1.209450         3.223081         0.620423
 C        -0.326469         4.274418         0.103348
 O         0.871506         4.294407         0.963654
 C         1.015498         2.956236         1.232734
 C        -0.354785         2.308996         1.528228
 H        -0.200864        -0.749477         0.164331
 H        -2.361626         0.164408        -0.223985
 H        -2.895585         1.001758         1.214244
 H        -1.535343         2.282434        -1.448235
 H        -2.120710         3.638768         1.030077
 H         0.086915         3.977957        -0.939115
 H        -0.809499         5.220799         0.170666
 H         1.439275         2.450355         0.314540
 H         1.668927         2.886266         2.194907
 H        -0.462488         2.324373         2.630370
