19
Iteration:  2682charge 0 multiplicity 1
 O         0.317110         0.328932         0.302551
 C        -0.664156         1.218857         0.647726
 C        -2.115217         0.891611         0.601312
 C        -1.584005         2.111364        -0.139602
 C        -1.386295         3.271976         0.747508
 C        -0.404080         4.338002         0.188086
 O         0.965668         3.844094         0.282178
 C         0.966738         2.944400         1.399800
 C        -0.422019         2.333772         1.593109
 H         1.112223         0.981509         0.316502
 H        -2.344924         0.188680        -0.208102
 H        -2.923219         1.073017         1.399217
 H        -1.747568         2.290457        -1.188620
 H        -2.200631         3.526014         1.357031
 H        -0.533234         4.444167        -0.933779
 H        -0.495034         5.339301         0.726263
 H         1.917449         2.321145         1.245143
 H         1.349907         3.429828         2.342678
 H        -0.742527         2.084251         2.623399
