19
Iteration:  1720
 O         0.337850         0.338506         0.346059
 C        -0.646041         1.248363         0.619956
 C        -2.077598         1.011453         0.504657
 C        -1.518369         2.172785        -0.248953
 C        -1.350248         3.295152         0.801887
 C        -0.463830         4.343249         0.337479
 O         0.860721         3.724031         0.231292
 C         1.019750         2.934892         1.396693
 C        -0.365266         2.326037         1.601305
 H        -0.007541        -0.448545         0.632993
 H        -2.384902         0.330072        -0.255781
 H        -2.696882         1.154213         1.289936
 H        -1.570009         2.524646        -1.308882
 H        -2.264771         3.500927         1.275647
 H        -0.700206         4.643422        -0.642724
 H        -0.467752         5.263564         0.954623
 H         1.711921         2.113229         1.245662
 H         1.241906         3.546033         2.203483
 H        -0.604465         2.159884         2.698776
