19
Iteration:  2661charge 0 multiplicity 1
 O         0.333273         0.262368         0.309313
 C        -0.653544         1.301165         0.621042
 C        -2.111401         0.783400         0.577210
 C        -1.694231         2.109979        -0.247866
 C        -1.336305         3.303872         0.730552
 C        -0.384641         4.371298         0.237027
 O         0.936117         3.799324         0.267877
 C         0.961019         2.988264         1.458609
 C        -0.391709         2.420812         1.668323
 H         0.731967         0.634576        -0.425783
 H        -2.197980        -0.121067        -0.034105
 H        -2.695966         0.896012         1.564090
 H        -1.728856         2.082232        -1.328033
 H        -2.184130         3.858446         1.248382
 H        -0.501136         4.722292        -0.802520
 H        -0.265869         5.232564         0.940122
 H         1.705783         2.270660         1.489991
 H         1.362645         3.570919         2.328448
 H        -0.600324         2.287450         2.735902
