19
Iteration:  4103
 O         0.209126         0.094004         0.193710
 C        -0.656993         1.152780         0.541337
 C        -2.146219         0.959838         0.694157
 C        -1.580151         1.977860        -0.303805
 C        -1.265806         3.240370         0.465977
 C        -0.222175         4.264906         0.050086
 O         0.848305         4.368936         0.983503
 C         1.008485         2.982836         1.484979
 C        -0.375167         2.353222         1.403643
 H        -0.131407        -0.829488         0.450650
 H        -2.547571         0.102916         0.220880
 H        -2.708921         1.302150         1.474094
 H        -1.874788         1.785361        -1.323967
 H        -2.110619         3.794475         0.842305
 H         0.143744         4.227045        -0.979030
 H        -0.654640         5.355244         0.030113
 H         1.701182         2.233570         0.944639
 H         1.372644         3.108760         2.492314
 H        -0.641143         2.119504         2.482929
