19
Iteration:  1171
 O         0.389001         0.231749         0.275820
 C        -0.755029         1.176313         0.657312
 C        -2.196762         0.851781         0.532288
 C        -1.545848         2.107664        -0.182694
 C        -1.373080         3.313337         0.805752
 C        -0.394539         4.448441         0.310948
 O         0.987306         3.934158         0.246158
 C         1.033061         2.954352         1.320197
 C        -0.390450         2.396499         1.585311
 H         0.239277        -0.549369         0.900821
 H        -2.521165        -0.058353        -0.083627
 H        -2.987437         0.900764         1.321147
 H        -1.668589         2.212038        -1.227740
 H        -2.466435         3.636547         1.133999
 H        -0.663473         5.099261        -0.502361
 H        -0.372936         5.271922         1.138738
 H         1.820818         2.099181         1.221761
 H         1.082223         3.510191         2.283792
 H        -0.392262         2.019949         2.594408
