19
Iteration:  3795charge 0 multiplicity 1
 O         0.086173         0.033853         0.359064
 C        -0.719807         1.211081         0.531209
 C        -2.168771         0.935520         0.449012
 C        -1.560668         2.058664        -0.349574
 C        -1.232418         3.235377         0.713856
 C        -0.292600         4.240087         0.019927
 O         0.861507         4.337519         0.858964
 C         1.111237         3.078179         1.490928
 C        -0.298815         2.216233         1.520389
 H         0.603283         0.150992        -0.505998
 H        -2.335944        -0.034387         0.014920
 H        -2.801407         1.217421         1.234888
 H        -1.874694         2.130626        -1.390947
 H        -2.179659         3.536717         1.265550
 H         0.007524         3.840016        -0.933121
 H        -0.737647         5.300028        -0.104412
 H         1.781809         2.620242         0.825276
 H         1.417727         3.316743         2.511554
 H        -0.498182         2.058327         2.600160
