19
Iteration:  3196charge 0 multiplicity 1
 O         0.314523         0.279315         0.268453
 C        -0.633684         1.212795         0.594271
 C        -2.115184         0.892713         0.526213
 C        -1.522332         2.061485        -0.297187
 C        -1.349020         3.312935         0.571631
 C        -0.354910         4.469632         0.324349
 O         0.980983         3.941039         0.417811
 C         0.903692         2.886428         1.513798
 C        -0.496459         2.330257         1.578023
 H         0.575700        -0.181649         1.059228
 H        -2.299633         0.045296        -0.161470
 H        -2.713905         0.919461         1.455579
 H        -1.687852         1.914360        -1.389537
 H        -2.166251         3.762834         1.067815
 H        -0.572984         4.892608        -0.729169
 H        -0.538437         5.078189         1.193801
 H         1.663571         2.239174         1.151417
 H         1.218546         3.412254         2.477406
 H        -0.778528         2.174154         2.646032
