19
Iteration:  2578
 O         0.277806         0.199557         0.298124
 C        -0.638659         1.240604         0.624162
 C        -2.060332         0.822401         0.517601
 C        -1.784394         2.083629        -0.113418
 C        -1.304779         3.338205         0.818423
 C        -0.345202         4.393400         0.139356
 O         0.997018         3.874044         0.277816
 C         0.962372         3.025255         1.497867
 C        -0.422821         2.359485         1.576748
 H         1.059526         0.726714         0.060059
 H        -2.153221         0.011085        -0.158245
 H        -2.735025         0.715773         1.338717
 H        -1.909871         2.338241        -1.183101
 H        -2.069604         3.747433         1.308196
 H        -0.577332         4.694576        -0.867741
 H        -0.374383         5.320824         0.783016
 H         1.759027         2.186757         1.346908
 H         1.147262         3.654779         2.354690
 H        -0.809021         2.037271         2.565076
