19
Iteration:  1462charge 0 multiplicity 1
 O         0.265177         0.162976         0.338924
 C        -0.661721         1.228256         0.535680
 C        -2.154370         0.996418         0.590823
 C        -1.610967         2.145733        -0.312496
 C        -1.280204         3.227205         0.750078
 C        -0.418751         4.302207         0.359998
 O         0.906822         3.969350         0.313898
 C         1.052341         3.025807         1.386314
 C        -0.319696         2.300009         1.545431
 H         0.488183        -0.277103         1.145717
 H        -2.370347         0.080532         0.032278
 H        -2.892021         1.326784         1.486272
 H        -1.803314         2.386658        -1.389749
 H        -2.138182         3.595681         1.281978
 H        -0.590201         4.794768        -0.700067
 H        -0.611169         5.143122         1.120303
 H         1.887620         2.396019         0.977415
 H         1.229985         3.695418         2.339366
 H        -0.619594         1.804406         2.475399
