19
Iteration:  3310
 O         0.447301         0.394157         0.419348
 C        -0.689276         1.206646         0.615544
 C        -2.158626         0.879711         0.497388
 C        -1.683476         2.088982        -0.303529
 C        -1.357685         3.237976         0.626458
 C        -0.364005         4.398808         0.292538
 O         0.985146         3.831552         0.357920
 C         0.950590         2.908177         1.470905
 C        -0.467581         2.383565         1.633848
 H         0.979343         0.722758        -0.386439
 H        -2.356662         0.001017        -0.149343
 H        -2.951512         0.972320         1.243707
 H        -1.620204         2.235087        -1.402691
 H        -2.249630         3.510206         1.292215
 H        -0.496578         4.695465        -0.698000
 H        -0.286183         5.204940         1.049485
 H         1.501363         2.077212         1.112753
 H         1.302191         3.397754         2.404980
 H        -0.886643         2.098249         2.597074
