19
Iteration:  4222charge 0 multiplicity 1
 O         0.261679         0.194170         0.268497
 C        -0.694061         1.093694         0.653228
 C        -2.190670         0.986174         0.571601
 C        -1.537057         1.986637        -0.377436
 C        -1.284832         3.173722         0.557243
 C        -0.332630         4.385442         0.138453
 O         0.966411         4.265563         0.818776
 C         1.036831         2.971301         1.456800
 C        -0.420666         2.340241         1.541527
 H        -0.162772        -0.700052         0.004077
 H        -2.478587         0.020137         0.071005
 H        -2.968145         1.055141         1.345750
 H        -1.542096         1.984744        -1.478820
 H        -2.262063         3.501574         0.852171
 H        -0.067048         4.324311        -0.913789
 H        -0.881273         5.400223         0.082920
 H         1.621399         2.322361         0.796188
 H         1.658269         2.915381         2.279667
 H        -0.872950         2.362295         2.580129
