19
Iteration:  4341
 O         0.206561         0.108632         0.290105
 C        -0.693998         1.120346         0.602050
 C        -2.156829         0.931878         0.540488
 C        -1.532963         1.952809        -0.425168
 C        -1.260697         3.265093         0.536932
 C        -0.299063         4.379902         0.096295
 O         0.873547         4.315378         1.049251
 C         1.009715         2.923103         1.282699
 C        -0.366598         2.336107         1.511814
 H         0.491767        -0.269343         1.081898
 H        -2.612581        -0.019789         0.069963
 H        -2.868776         1.491853         1.298089
 H        -1.846956         2.035945        -1.478803
 H        -2.261588         3.704440         0.969932
 H         0.010064         4.250761        -1.020899
 H        -0.675215         5.409705         0.235740
 H         1.548173         2.401412         0.473257
 H         1.708624         2.879108         2.154581
 H        -0.561345         2.202384         2.556522
