19
Iteration:   306charge 0 multiplicity 1
 O         0.248059         0.303436         0.208709
 C        -0.628089         1.257652         0.677687
 C        -2.099645         1.016591         0.624791
 C        -1.433810         2.068273        -0.191284
 C        -1.316234         3.257687         0.689925
 C        -0.465133         4.305667         0.274741
 O         0.802752         3.884741         0.305502
 C         1.088839         2.950690         1.385815
 C        -0.350462         2.352805         1.615745
 H        -0.003714        -0.482528         0.588785
 H        -2.393734         0.119330         0.112480
 H        -2.705182         1.360514         1.427997
 H        -1.436971         2.043364        -1.311479
 H        -2.346639         3.520456         1.130647
 H        -0.796799         4.798602        -0.576258
 H        -0.662010         5.049687         1.130226
 H         1.754767         2.239063         0.901488
 H         1.522698         3.514389         2.249258
 H        -0.677933         2.090725         2.675498
