19
Iteration:  3169charge 0 multiplicity 1
 O         0.335725         0.330227         0.217126
 C        -0.663133         1.242490         0.641290
 C        -2.191866         0.989531         0.488745
 C        -1.391520         2.018482        -0.350554
 C        -1.394649         3.243973         0.635286
 C        -0.408490         4.408255         0.350371
 O         0.919154         3.795614         0.387456
 C         0.978192         2.968188         1.542494
 C        -0.484888         2.390544         1.617338
 H         0.828076        -0.049413         0.944425
 H        -2.495765         0.079982        -0.003492
 H        -2.819258         1.269236         1.334295
 H        -1.270879         1.956698        -1.412840
 H        -2.341031         3.620456         1.131967
 H        -0.603193         4.748553        -0.626551
 H        -0.506793         5.152735         1.192800
 H         1.706948         2.137601         1.084893
 H         1.362893         3.518896         2.366539
 H        -0.653451         2.187557         2.698709
