19
Iteration:  3575
 O         0.262087         0.069133         0.445462
 C        -0.731062         1.131488         0.628146
 C        -2.273137         0.916170         0.443754
 C        -1.532308         2.114812        -0.294715
 C        -1.252590         3.236259         0.739766
 C        -0.323531         4.274951         0.053852
 O         0.859956         4.321476         0.845162
 C         1.055472         2.929677         1.199035
 C        -0.362710         2.366363         1.557729
 H         1.088870         0.475010         0.385605
 H        -2.419470         0.115766        -0.296999
 H        -3.098944         1.095951         1.105684
 H        -1.897325         2.115271        -1.314634
 H        -2.057214         3.534481         1.342205
 H         0.014356         3.801221        -0.884961
 H        -0.846416         5.248536        -0.328221
 H         1.579202         2.499366         0.347207
 H         1.874119         2.811403         1.942037
 H        -0.547455         2.198967         2.641727
