19
Iteration:  4606
 O         0.198224         0.133064         0.320585
 C        -0.669407         1.154378         0.672319
 C        -2.157454         0.881186         0.454103
 C        -1.493889         2.103522        -0.255342
 C        -1.302551         3.328314         0.668482
 C        -0.297968         4.288750         0.028723
 O         0.775944         4.274803         0.897512
 C         1.029767         2.956981         1.221978
 C        -0.329309         2.248318         1.607480
 H         0.744336        -0.004117         1.077865
 H        -2.443366         0.051958        -0.342306
 H        -3.116293         1.244981         0.878046
 H        -1.409060         2.119971        -1.363600
 H        -2.165731         3.829117         1.267522
 H        -0.045315         3.691324        -0.923904
 H        -0.754066         5.262142        -0.047029
 H         1.419485         2.335991         0.236792
 H         1.847456         2.868109         1.838549
 H        -0.412450         2.321104         2.632739
