19
Iteration:  4046charge 0 multiplicity 1
 O         0.244464         0.193555         0.290811
 C        -0.707085         1.153354         0.653877
 C        -2.177813         0.929148         0.414212
 C        -1.553701         2.082634        -0.320806
 C        -1.251580         3.261526         0.672270
 C        -0.270802         4.173035        -0.017313
 O         0.795216         4.306686         0.939693
 C         1.056229         2.950578         1.321135
 C        -0.354840         2.389476         1.657301
 H        -0.166936        -0.627227         0.161630
 H        -2.373242         0.007482        -0.103687
 H        -2.877207         1.143668         1.213539
 H        -1.496712         1.981045        -1.409936
 H        -2.077051         3.671432         1.162580
 H         0.069103         3.533012        -0.854490
 H        -0.554381         5.241111        -0.226438
 H         1.352589         2.238584         0.495656
 H         1.794035         3.041947         2.059051
 H        -0.582958         2.281787         2.763211
