19
Iteration:  2244
 O         0.219604         0.263605         0.147549
 C        -0.673396         1.099181         0.706343
 C        -2.143283         0.867460         0.510817
 C        -1.521477         2.041398        -0.178815
 C        -1.324470         3.326842         0.804133
 C        -0.406900         4.390609         0.259565
 O         0.944712         3.899551         0.272500
 C         1.020827         3.098732         1.499874
 C        -0.383927         2.394427         1.561236
 H         0.121567        -0.689218         0.594145
 H        -2.172673        -0.221832         0.110993
 H        -2.916005         1.120536         1.309750
 H        -1.218811         2.234265        -1.181405
 H        -2.204054         3.708104         1.293281
 H        -0.368157         4.814255        -0.779661
 H        -0.538466         5.140332         1.006382
 H         1.810449         2.415169         1.426035
 H         1.250775         3.717708         2.376080
 H        -0.593915         2.300842         2.646113
