19
Iteration:  1594
 O         0.228736         0.377961         0.058325
 C        -0.699179         1.189522         0.692413
 C        -2.134280         0.802628         0.643406
 C        -1.646810         2.018945        -0.175408
 C        -1.339183         3.260764         0.623680
 C        -0.369537         4.352993         0.227545
 O         1.052371         3.855603         0.325916
 C         1.067107         3.062079         1.597897
 C        -0.378269         2.454431         1.652465
 H         0.184752        -0.491945         0.317688
 H        -2.237896        -0.155677        -0.008780
 H        -2.940331         1.161066         1.459171
 H        -1.878117         2.184254        -1.197433
 H        -2.345663         3.589880         0.971824
 H        -0.455347         4.784175        -0.871756
 H        -0.611684         5.112326         0.946632
 H         1.921654         2.413585         1.414071
 H         1.270049         3.492894         2.518361
 H        -0.785885         2.252930         2.642476
