19
Iteration:  1270
 O         0.228798         0.285015         0.218691
 C        -0.676362         1.282266         0.557052
 C        -2.084497         0.783404         0.580018
 C        -1.737075         2.023019        -0.266654
 C        -1.336999         3.267387         0.796475
 C        -0.274887         4.372310         0.285138
 O         1.022013         3.892062         0.267202
 C         0.988295         3.116944         1.421408
 C        -0.411808         2.382280         1.659417
 H         0.170938        -0.399166         0.927026
 H        -2.099125        -0.163139         0.059362
 H        -2.689113         0.869988         1.483888
 H        -1.865480         2.175923        -1.376668
 H        -2.264157         3.743332         1.346076
 H        -0.492698         4.723416        -0.716607
 H        -0.390849         5.115779         1.190111
 H         1.782948         2.328869         1.442659
 H         1.393516         3.636669         2.268780
 H        -0.548174         2.180709         2.684564
