19
Iteration:  2226charge 0 multiplicity 1
 O         0.286116         0.284493         0.180248
 C        -0.646114         1.212008         0.623844
 C        -2.105158         0.896528         0.637297
 C        -1.575406         2.079983        -0.260294
 C        -1.293924         3.233487         0.646559
 C        -0.441214         4.428416         0.281789
 O         0.965189         3.866390         0.329892
 C         0.976935         3.016618         1.460273
 C        -0.367745         2.396953         1.687468
 H        -0.081216        -0.612701         0.567375
 H        -2.472308         0.245490        -0.115250
 H        -2.814897         0.926056         1.484714
 H        -1.870105         1.954451        -1.289172
 H        -2.351739         3.607343         1.103669
 H        -0.533924         4.729826        -0.790604
 H        -0.404417         5.301920         1.055484
 H         1.946396         2.347117         1.337496
 H         1.238685         3.649978         2.341937
 H        -0.628217         2.045167         2.703389
