19
Iteration:   220charge 0 multiplicity 1
 O         0.314823         0.440848        -0.021301
 C        -0.627797         1.162076         0.710745
 C        -2.145185         0.960333         0.740229
 C        -1.514182         2.114797        -0.123950
 C        -1.346653         3.238074         0.754928
 C        -0.428097         4.350517         0.088854
 O         0.952159         3.717413         0.328498
 C         0.952422         3.052343         1.522557
 C        -0.392074         2.339157         1.674743
 H         0.432579        -0.553442         0.348505
 H        -2.560770         0.235491        -0.006045
 H        -2.665430         1.079672         1.691464
 H        -1.792425         2.034124        -1.214989
 H        -2.303291         3.686786         1.185974
 H        -0.613612         4.375423        -0.964814
 H        -0.459914         5.390019         0.584550
 H         1.801629         2.343398         1.454859
 H         1.009160         3.823891         2.354652
 H        -0.485346         2.218608         2.716638
