19
Iteration:  4570charge 0 multiplicity 1
 O         0.211507         0.147890         0.328261
 C        -0.729946         1.118837         0.661838
 C        -2.145195         0.866216         0.528957
 C        -1.631931         2.034762        -0.356733
 C        -1.225561         3.281607         0.578054
 C        -0.318765         4.331667         0.110661
 O         0.888455         4.263030         0.826419
 C         1.030503         2.947595         1.343695
 C        -0.346951         2.320404         1.542478
 H         1.081502         0.307282         0.733844
 H        -2.387260         0.074755        -0.119436
 H        -2.978747         1.167314         1.214792
 H        -1.690601         1.935645        -1.418759
 H        -2.083820         3.660893         1.073067
 H        -0.215629         4.433175        -1.000604
 H        -0.712384         5.316235         0.317903
 H         1.517999         2.481392         0.451836
 H         1.673704         2.924282         2.300335
 H        -0.784422         2.090414         2.574801
