19
Iteration:  1398charge 0 multiplicity 1
 O         0.280720         0.279745         0.180517
 C        -0.628355         1.239427         0.610210
 C        -2.188232         1.009520         0.667865
 C        -1.531706         2.039225        -0.255988
 C        -1.327138         3.233292         0.684784
 C        -0.485376         4.392006         0.212802
 O         0.906546         3.896677         0.344089
 C         1.117019         3.000975         1.537062
 C        -0.316581         2.310310         1.611821
 H        -0.051191        -0.474866         0.557859
 H        -2.514748         0.135534         0.089801
 H        -2.942148         1.359082         1.504690
 H        -1.472168         1.967095        -1.373772
 H        -2.176056         3.452995         1.321216
 H        -0.773910         4.659334        -0.933153
 H        -0.679850         5.282715         0.790174
 H         1.670511         2.215094         1.054025
 H         1.389552         3.484242         2.482057
 H        -0.504572         2.175581         2.776365
