19
Iteration:  4971
 O         0.464129         0.358325         0.449670
 C        -0.678256         1.229804         0.671945
 C        -2.141708         0.902469         0.372293
 C        -1.403301         2.184432        -0.277477
 C        -1.437905         3.280365         0.768578
 C        -0.438502         4.385135         0.308631
 O         0.891626         3.727167         0.247728
 C         0.981940         2.915907         1.490587
 C        -0.464824         2.420340         1.637848
 H         0.259716        -0.128762        -0.307818
 H        -2.361592         0.246553        -0.569555
 H        -2.956344         0.783079         1.172315
 H        -1.466221         2.241629        -1.386762
 H        -2.487179         3.548049         1.001821
 H        -0.636322         4.836724        -0.642453
 H        -0.476674         5.142133         1.153899
 H         1.627615         2.059434         1.256083
 H         1.189666         3.600004         2.305598
 H        -0.774138         2.254833         2.689072
