19
Iteration:  4275
 O         0.260739         0.112244         0.476221
 C        -0.657922         1.149773         0.588330
 C        -2.156991         0.937071         0.380906
 C        -1.604263         2.175426        -0.385972
 C        -1.237786         3.222719         0.674048
 C        -0.356520         4.232655         0.085073
 O         0.875167         4.312719         0.919063
 C         1.029166         2.966368         1.241107
 C        -0.329581         2.287226         1.563211
 H        -0.212076        -0.724153         0.115085
 H        -2.488138         0.063754        -0.310706
 H        -2.927427         1.217296         1.259334
 H        -1.847093         2.297191        -1.456650
 H        -2.080175         3.792033         1.264665
 H         0.115518         3.905496        -0.872818
 H        -0.966168         5.133325         0.102153
 H         1.599751         2.429042         0.492812
 H         1.557058         2.899279         2.222055
 H        -0.544347         2.319307         2.617629
