19
Iteration:    81charge 0 multiplicity 1
 O         0.344621         0.063520         0.320445
 C        -0.642808         1.123737         0.618010
 C        -2.166787         1.026154         0.605730
 C        -1.578957         2.127846        -0.236727
 C        -1.292763         3.253870         0.772115
 C        -0.457166         4.483104         0.320469
 O         0.882485         4.010495         0.309920
 C         0.962742         3.063414         1.285097
 C        -0.303028         2.288989         1.522199
 H         0.301216        -0.590070         0.940161
 H        -2.372882         0.070738         0.035575
 H        -2.650627         1.232527         1.608401
 H        -1.674233         2.153297        -1.362221
 H        -2.110326         3.447437         1.384026
 H        -0.716877         4.742830        -0.811955
 H        -0.495823         5.339983         1.031112
 H         1.685791         2.246067         0.910261
 H         1.153021         3.412939         2.340941
 H        -0.395378         2.130235         2.678897
