19
Iteration:  2153charge 0 multiplicity 1
 O         0.241477         0.375336         0.129204
 C        -0.697916         1.214423         0.737958
 C        -2.093680         0.841458         0.501478
 C        -1.495447         2.136419        -0.151384
 C        -1.297154         3.243622         0.768297
 C        -0.424645         4.375326         0.221941
 O         0.895109         3.726232         0.291117
 C         0.995759         3.073370         1.456405
 C        -0.357438         2.416649         1.719917
 H         0.234319        -0.546682         0.467919
 H        -2.156438         0.148217        -0.307141
 H        -2.937181         0.905568         1.180579
 H        -1.422401         2.110667        -1.282064
 H        -2.071140         3.812137         1.121847
 H        -0.703608         4.549126        -0.805874
 H        -0.441485         5.251440         0.851993
 H         1.729177         2.253558         1.401456
 H         1.369631         3.696632         2.276121
 H        -0.729999         2.352631         2.802710
