19
Iteration:     8charge 0 multiplicity 1
 O         0.304037         0.290766         0.182760
 C        -0.692272         1.182850         0.672006
 C        -2.167142         0.872422         0.622130
 C        -1.540990         2.146046        -0.168497
 C        -1.321506         3.277322         0.768419
 C        -0.427971         4.406312         0.251232
 O         0.914425         3.855629         0.234636
 C         1.011160         3.013911         1.408793
 C        -0.355316         2.356197         1.632908
 H         0.394554        -0.466916         0.656338
 H        -2.319852         0.025523        -0.095064
 H        -2.711036         0.664422         1.560084
 H        -1.353317         2.278086        -1.260385
 H        -2.320826         3.733719         1.180494
 H        -0.614393         4.840650        -0.726802
 H        -0.582188         5.390228         0.878776
 H         1.668873         2.126000         1.399549
 H         1.421556         3.569473         2.281096
 H        -0.540353         2.211143         2.685678
