19
Iteration:   968
 O         0.326695         0.283833         0.231570
 C        -0.654638         1.229319         0.665251
 C        -2.109966         0.991543         0.548215
 C        -1.395048         2.126743        -0.224379
 C        -1.373743         3.285719         0.806355
 C        -0.479029         4.380243         0.330309
 O         0.804316         3.783498         0.270034
 C         1.043713         2.968444         1.312693
 C        -0.389743         2.351071         1.675893
 H         0.079103        -0.476123         0.685594
 H        -2.447187         0.140817        -0.016608
 H        -2.764549         1.370670         1.299486
 H        -1.196967         2.166721        -1.271385
 H        -2.301041         3.725152         1.195321
 H        -0.706376         4.660408        -0.731766
 H        -0.558483         5.336484         0.935473
 H         1.728866         2.223377         1.054605
 H         1.411521         3.390460         2.260195
 H        -0.429336         2.159659         2.677936
