19
Iteration:  2788charge 0 multiplicity 1
 O         0.360359         0.378980         0.333250
 C        -0.716016         1.230092         0.653097
 C        -2.158063         0.910533         0.582594
 C        -1.548510         2.065920        -0.279327
 C        -1.303966         3.232028         0.752954
 C        -0.455638         4.357818         0.185728
 O         0.942628         3.914742         0.361674
 C         1.028128         2.909056         1.411276
 C        -0.381191         2.340587         1.665383
 H        -0.095049        -0.223392        -0.234644
 H        -2.471008         0.101935        -0.055318
 H        -2.953903         1.094509         1.314432
 H        -1.521887         2.095053        -1.364909
 H        -2.297503         3.614177         1.241323
 H        -0.508388         4.654424        -0.927553
 H        -0.531640         5.334936         0.691368
 H         1.778080         2.322675         1.036574
 H         1.306324         3.508854         2.288971
 H        -0.512540         2.021348         2.729560
