19
Iteration:  3453charge 0 multiplicity 1
 O         0.256058         0.203772         0.352002
 C        -0.669042         1.136189         0.695548
 C        -2.155280         0.848845         0.401026
 C        -1.615193         2.123710        -0.200869
 C        -1.339291         3.290352         0.724160
 C        -0.377227         4.296821         0.008249
 O         0.961063         4.112276         0.622740
 C         0.990963         2.934416         1.411093
 C        -0.372394         2.322031         1.596681
 H         1.029504         0.868162         0.098270
 H        -2.440107         0.151768        -0.371188
 H        -2.937623         0.933258         1.234344
 H        -1.574652         2.349876        -1.256996
 H        -2.146270         3.719514         1.270819
 H        -0.387320         4.163356        -1.073723
 H        -0.664050         5.369831         0.359510
 H         1.764166         2.183032         0.931749
 H         1.619974         3.196176         2.431328
 H        -0.681817         2.351337         2.655656
