19
Iteration:  2400charge 0 multiplicity 1
 O         0.284785         0.213955         0.285974
 C        -0.648097         1.185247         0.618071
 C        -2.123732         0.936793         0.547110
 C        -1.647148         2.115589        -0.195945
 C        -1.293622         3.276645         0.743631
 C        -0.404028         4.332357         0.267305
 O         0.961475         3.843567         0.254635
 C         1.019479         3.092768         1.540066
 C        -0.411808         2.351380         1.575487
 H         0.365093         0.099977        -0.624000
 H        -2.411579         0.090246        -0.134811
 H        -2.572308         0.930740         1.589107
 H        -1.682683         2.104956        -1.313388
 H        -2.200330         3.601487         1.219924
 H        -0.639118         4.752626        -0.713520
 H        -0.482578         5.180761         0.964865
 H         2.022338         2.466913         1.629105
 H         0.888661         3.796587         2.383013
 H        -0.507927         2.333122         2.691187
