19
Iteration:  1551
 O         0.468203         0.350335         0.251125
 C        -0.608383         1.210905         0.588974
 C        -2.158297         0.997954         0.503392
 C        -1.643607         2.248562        -0.190800
 C        -1.356782         3.261105         0.826593
 C        -0.414618         4.333622         0.192681
 O         0.881839         3.699685         0.221102
 C         0.962407         2.950255         1.507383
 C        -0.356917         2.311341         1.694338
 H         0.198156        -0.493565         0.528399
 H        -2.622287         0.335868        -0.315406
 H        -2.689509         1.163910         1.559002
 H        -1.987332         2.386757        -1.197322
 H        -2.095622         3.793968         1.402919
 H        -0.741880         4.673418        -0.906818
 H        -0.448468         5.237850         0.869066
 H         1.784718         2.225629         1.553736
 H         1.221732         3.820540         2.240914
 H        -0.686072         2.058469         2.722671
