19
Iteration:  1738
 O         0.389867         0.246721         0.397100
 C        -0.623887         1.218919         0.559269
 C        -2.200521         0.930651         0.371365
 C        -1.589864         2.266872        -0.189987
 C        -1.328193         3.304583         0.896940
 C        -0.381738         4.435151         0.260279
 O         0.826482         3.756451         0.213952
 C         1.019739         2.977669         1.404153
 C        -0.356113         2.275155         1.633898
 H         0.205987        -0.461317         0.914707
 H        -2.353251         0.092726        -0.305526
 H        -2.902348         0.947891         1.348897
 H        -1.763545         2.347421        -1.295669
 H        -2.149907         3.784857         1.459029
 H        -0.729931         4.783697        -0.774998
 H        -0.227367         5.318524         0.911423
 H         1.845262         2.301056         1.213827
 H         1.301550         3.669934         2.343343
 H        -0.548594         2.026603         2.662567
