19
Iteration:  4728
 O         0.301284         0.203165         0.344246
 C        -0.725473         1.127110         0.657832
 C        -2.219178         0.919445         0.488641
 C        -1.601576         2.058361        -0.221701
 C        -1.329763         3.310990         0.633662
 C        -0.253847         4.191711         0.036563
 O         0.843231         4.310874         0.894754
 C         1.079763         2.967493         1.255006
 C        -0.353645         2.320947         1.558534
 H         0.306042        -0.173021        -0.600812
 H        -2.422143        -0.021219        -0.057005
 H        -2.733379         0.876852         1.523149
 H        -1.670985         1.955828        -1.299931
 H        -2.250017         3.765919         1.136194
 H        -0.008558         3.766591        -0.965670
 H        -0.670356         5.230212        -0.233450
 H         1.632339         2.322490         0.566439
 H         1.628202         2.911585         2.152419
 H        -0.670554         2.179256         2.572922
