19
Iteration:  3211charge 0 multiplicity 1
 O         0.392899         0.239631         0.277753
 C        -0.738768         1.140340         0.582331
 C        -2.183374         0.849685         0.430088
 C        -1.594853         2.058731        -0.270911
 C        -1.361183         3.257454         0.714666
 C        -0.349567         4.413697         0.290042
 O         1.016452         3.953596         0.446299
 C         0.999410         3.073516         1.506665
 C        -0.422521         2.382845         1.558735
 H         0.194361        -0.590784         0.902594
 H        -2.478886         0.088028        -0.276219
 H        -2.926831         0.982058         1.242945
 H        -1.678103         2.259416        -1.323587
 H        -2.452219         3.633656         1.042527
 H        -0.335721         4.775850        -0.702556
 H        -0.531112         5.342261         0.885132
 H         1.670454         2.250319         1.305831
 H         1.189602         3.610726         2.493540
 H        -0.769891         2.216326         2.594902
