19
Iteration:  1510charge 0 multiplicity 1
 O         0.296616         0.371883         0.208238
 C        -0.681244         1.197755         0.769750
 C        -2.118331         0.852475         0.406847
 C        -1.523047         2.097077        -0.116447
 C        -1.302563         3.320793         0.794631
 C        -0.392050         4.416331         0.321031
 O         0.917896         3.787132         0.137023
 C         0.981875         2.956778         1.382155
 C        -0.454649         2.401884         1.781343
 H         0.016823        -0.622806         0.475697
 H        -2.159818         0.083958        -0.399260
 H        -2.846567         0.778541         1.138603
 H        -1.328413         2.122522        -1.164669
 H        -2.264583         3.655007         1.169186
 H        -0.604477         4.975887        -0.605002
 H        -0.216103         5.186983         1.092296
 H         1.592021         2.165112         1.026055
 H         1.406956         3.548815         2.239579
 H        -0.538120         2.420584         2.917265
