19
Iteration:  3513charge 0 multiplicity 1
 O         0.181828        -0.052734         0.280595
 C        -0.756311         1.128330         0.598700
 C        -2.217021         0.930349         0.698124
 C        -1.520278         1.937149        -0.310880
 C        -1.234411         3.193281         0.508391
 C        -0.359879         4.421285         0.155058
 O         0.924778         4.316851         0.724538
 C         1.066649         3.113283         1.446967
 C        -0.329578         2.292122         1.498939
 H         0.851578         0.492489        -0.184821
 H        -2.617712         0.181509         0.004554
 H        -2.905777         1.338218         1.375128
 H        -1.421029         1.820450        -1.434249
 H        -2.159081         3.719666         1.055832
 H        -0.119783         4.584415        -0.900289
 H        -0.727363         5.366665         0.526348
 H         1.622618         2.395748         0.856064
 H         1.410042         3.238254         2.529516
 H        -0.821406         2.217319         2.452972
