19
Iteration:  4444charge 0 multiplicity 1
 O         0.403550         0.309547         0.302158
 C        -0.735681         1.133792         0.549372
 C        -2.180758         0.886577         0.695188
 C        -1.677158         1.992580        -0.343987
 C        -1.315405         3.251675         0.512825
 C        -0.199696         4.257120         0.008768
 O         0.896805         4.279198         1.050636
 C         0.965802         2.885105         1.362936
 C        -0.395494         2.348583         1.409821
 H         0.034217        -0.495531        -0.245935
 H        -2.799019         0.113775         0.215557
 H        -2.742437         1.392406         1.525663
 H        -2.100184         2.190827        -1.319598
 H        -2.242590         3.617747         0.997599
 H         0.284153         3.786258        -0.880159
 H        -0.632974         5.321148        -0.187617
 H         1.630625         2.396220         0.614492
 H         1.490364         2.768104         2.301400
 H        -0.650551         2.213387         2.511999
