19
Iteration:   980
 O         0.325642         0.198939         0.215571
 C        -0.582223         1.197773         0.650432
 C        -2.116665         1.023821         0.511971
 C        -1.483614         2.204135        -0.169202
 C        -1.325115         3.269330         0.854547
 C        -0.464589         4.363866         0.238033
 O         0.850497         3.871887         0.217330
 C         0.958605         2.944863         1.450582
 C        -0.342692         2.325603         1.663517
 H         0.313743        -0.556467         0.939059
 H        -2.470466         0.336050        -0.262403
 H        -2.781902         1.145732         1.308933
 H        -1.709339         2.307485        -1.224718
 H        -2.273887         3.475005         1.421251
 H        -0.800449         4.504738        -0.832372
 H        -0.526398         5.347347         0.803210
 H         1.666076         2.286196         1.175096
 H         1.297692         3.655368         2.195250
 H        -0.641580         2.184680         2.636732
