19
Iteration:   410
 O         0.361093         0.280560         0.180833
 C        -0.622307         1.145162         0.635540
 C        -2.174686         0.986095         0.705673
 C        -1.489574         2.052646        -0.208067
 C        -1.339089         3.294957         0.806719
 C        -0.367080         4.427022         0.288993
 O         0.898578         3.911241         0.222006
 C         0.951496         2.987236         1.413857
 C        -0.443133         2.301507         1.563845
 H         0.115460        -0.699068         0.406685
 H        -2.408744         0.047366         0.112301
 H        -2.837843         1.366777         1.517619
 H        -1.653009         2.043800        -1.338240
 H        -2.261823         3.571318         1.366922
 H        -0.681969         4.797168        -0.760107
 H        -0.428429         5.214984         1.108471
 H         1.794043         2.285286         1.210413
 H         1.296267         3.614482         2.367466
 H        -0.660207         2.129617         2.566092
