19
Iteration:   585charge 0 multiplicity 1
 O         0.280758         0.226849         0.263251
 C        -0.742468         1.185080         0.717474
 C        -2.156865         0.939170         0.528704
 C        -1.460399         2.089254        -0.221204
 C        -1.326622         3.234960         0.823383
 C        -0.477657         4.440087         0.321060
 O         0.896208         3.853593         0.197284
 C         1.117196         3.076346         1.373120
 C        -0.355460         2.362984         1.656192
 H        -0.066274        -0.659008         0.164931
 H        -2.439485         0.080567        -0.086754
 H        -2.942290         1.203043         1.252955
 H        -1.163338         2.142356        -1.226035
 H        -2.323069         3.530145         1.319591
 H        -0.796657         4.800228        -0.720333
 H        -0.486813         5.339802         0.932056
 H         1.847124         2.337555         1.100352
 H         1.526737         3.724166         2.231863
 H        -0.547655         2.052644         2.766497
