19
Iteration:  4665
 O         0.225808         0.058063         0.299403
 C        -0.688653         1.096987         0.573856
 C        -2.145269         0.991313         0.695059
 C        -1.494153         1.955050        -0.347214
 C        -1.173076         3.233558         0.482522
 C        -0.348694         4.384774         0.084114
 O         0.799100         4.356039         0.957287
 C         1.012974         2.925051         1.347912
 C        -0.336863         2.331922         1.463304
 H        -0.349278        -0.711743        -0.078267
 H        -2.452641         0.105135         0.272954
 H        -2.681664         1.337061         1.580098
 H        -1.916135         1.798129        -1.312276
 H        -2.008572         3.702965         1.069338
 H        -0.006588         4.422734        -0.984247
 H        -0.782757         5.410764         0.152282
 H         1.561602         2.472830         0.463667
 H         1.721557         3.109623         2.214795
 H        -0.786889         2.484041         2.433774
