19
Iteration:   553
 O         0.369474         0.368581         0.240368
 C        -0.658740         1.205804         0.636899
 C        -2.122219         0.979652         0.559995
 C        -1.584566         2.206339        -0.158462
 C        -1.350677         3.233241         0.827786
 C        -0.441739         4.333990         0.224872
 O         0.901650         3.757716         0.211970
 C         1.040296         3.001800         1.387761
 C        -0.403168         2.329586         1.694675
 H         0.396521        -0.507190         0.816302
 H        -2.403155         0.344955        -0.249730
 H        -2.857642         1.068552         1.359734
 H        -1.614873         2.233345        -1.211585
 H        -2.306343         3.627377         1.280805
 H        -0.847950         4.587818        -0.805605
 H        -0.416335         5.203230         0.835122
 H         1.706140         2.217748         1.211178
 H         1.419368         3.556464         2.199427
 H        -0.549563         1.937771         2.729919
