19
Iteration:   862
 O         0.220942         0.236591         0.128302
 C        -0.708547         1.128135         0.724790
 C        -2.225158         0.887117         0.573172
 C        -1.488491         2.028472        -0.114815
 C        -1.184928         3.243387         0.721478
 C        -0.396058         4.421460         0.276557
 O         0.914462         3.935331         0.278392
 C         0.978543         3.153931         1.446807
 C        -0.305480         2.335990         1.587340
 H        -0.103785        -0.605500         0.263449
 H        -2.261252        -0.036519        -0.012227
 H        -2.831960         0.898618         1.420358
 H        -1.458069         1.937579        -1.174020
 H        -2.053847         3.682402         1.256557
 H        -0.574941         4.772009        -0.789873
 H        -0.544283         5.214760         1.004184
 H         1.818817         2.552076         1.316271
 H         1.029172         3.840992         2.365239
 H        -0.611668         2.384784         2.742020
