19
Iteration:  2318
 O         0.373640         0.359385         0.278521
 C        -0.734835         1.202841         0.683859
 C        -2.103186         0.798187         0.606006
 C        -1.575654         2.151153        -0.237459
 C        -1.304773         3.323337         0.685292
 C        -0.393886         4.436171         0.330158
 O         0.931619         3.790840         0.267983
 C         1.000497         2.979905         1.399897
 C        -0.457112         2.359901         1.542307
 H         0.226124        -0.600521         0.579302
 H        -2.463958         0.055252        -0.166103
 H        -2.799277         0.959320         1.400538
 H        -1.552772         2.286827        -1.317929
 H        -2.176367         3.668426         1.163178
 H        -0.622429         5.063073        -0.548463
 H        -0.420482         4.993276         1.322918
 H         1.611210         2.177458         1.184584
 H         1.389817         3.428437         2.373676
 H        -0.633962         2.322473         2.626992
