19
Iteration:  1689
 O         0.284710         0.347607         0.177937
 C        -0.675482         1.137194         0.741043
 C        -2.215352         0.815344         0.578568
 C        -1.497972         2.045599        -0.187429
 C        -1.299407         3.313650         0.676658
 C        -0.352657         4.447216         0.331724
 O         0.915283         3.828486         0.291927
 C         1.022627         3.028244         1.403744
 C        -0.406440         2.386818         1.610360
 H         0.014043        -0.676839         0.259831
 H        -2.574425         0.137882        -0.216516
 H        -2.906305         1.038716         1.338365
 H        -1.328711         2.137919        -1.280880
 H        -2.250499         3.724514         1.128155
 H        -0.539062         4.911497        -0.622654
 H        -0.280940         5.281343         1.139889
 H         1.770855         2.153444         1.389089
 H         1.298693         3.683083         2.286772
 H        -0.693874         2.474490         2.690018
