19
Iteration:  4254
 O         0.217391         0.072808         0.463606
 C        -0.644589         1.152443         0.536095
 C        -2.191065         0.959014         0.405549
 C        -1.568456         2.132820        -0.276054
 C        -1.277715         3.301701         0.734089
 C        -0.350564         4.322959         0.027284
 O         0.814816         4.267979         0.826070
 C         1.103776         2.974045         1.392529
 C        -0.324551         2.253772         1.479499
 H        -0.162111        -0.724949        -0.007558
 H        -2.191070         0.235401        -0.491562
 H        -2.983681         0.779107         1.280399
 H        -1.406384         2.409281        -1.333481
 H        -2.294394         3.542834         1.151395
 H        -0.050456         3.861943        -0.877534
 H        -0.641468         5.405670         0.029904
 H         1.686345         2.467577         0.645675
 H         1.570432         3.138385         2.338163
 H        -0.397970         2.057813         2.559816
