19
Iteration:   840
 O         0.244700         0.213786         0.102482
 C        -0.639746         1.202948         0.594875
 C        -2.105807         0.861495         0.661014
 C        -1.655497         2.040818        -0.193903
 C        -1.409081         3.256865         0.720551
 C        -0.369573         4.448143         0.277741
 O         1.040925         3.880488         0.283945
 C         1.036550         3.108307         1.494418
 C        -0.372540         2.366833         1.614277
 H         0.428110        -0.402138         0.923076
 H        -2.417412         0.005511         0.089064
 H        -2.748235         1.160025         1.435639
 H        -1.887648         1.870882        -1.216383
 H        -2.258224         3.795126         1.157934
 H        -0.619897         4.744790        -0.772963
 H        -0.487347         5.243064         1.040291
 H         1.809018         2.430991         1.466743
 H         1.090777         3.805667         2.401140
 H        -0.674156         2.184102         2.741519
