19
Iteration:  2849charge 0 multiplicity 1
 O         0.323381         0.250801         0.196839
 C        -0.697070         1.189201         0.668482
 C        -2.160518         0.972399         0.553225
 C        -1.528957         2.132941        -0.288100
 C        -1.361495         3.223084         0.755862
 C        -0.398109         4.329261         0.266148
 O         0.878619         3.756577         0.274002
 C         1.052759         3.139548         1.505711
 C        -0.409653         2.351042         1.599767
 H         0.899257         0.155001         0.902591
 H        -2.510962         0.164088        -0.085828
 H        -2.811569         1.247030         1.363890
 H        -1.421496         2.284022        -1.345501
 H        -2.192008         3.567027         1.301175
 H        -0.588432         4.781626        -0.648511
 H        -0.400121         5.048984         1.093387
 H         2.041414         2.525315         1.620013
 H         1.010539         3.737870         2.361569
 H        -0.614966         2.085953         2.648806
