19
Iteration:  1296charge 0 multiplicity 1
 O         0.403703         0.409949         0.171103
 C        -0.677897         1.149151         0.643092
 C        -2.127980         0.977276         0.596491
 C        -1.580777         2.135375        -0.171318
 C        -1.358174         3.325910         0.790905
 C        -0.405114         4.357670         0.205110
 O         0.868421         3.675149         0.260839
 C         0.990080         3.025814         1.469167
 C        -0.393087         2.335855         1.631339
 H         0.604101        -0.408683         0.774639
 H        -2.560842         0.373271        -0.214772
 H        -2.767239         1.090546         1.457008
 H        -1.610663         2.145603        -1.252780
 H        -2.233009         3.623940         1.296324
 H        -0.499063         4.571614        -0.862660
 H        -0.417634         5.254452         0.862771
 H         1.821482         2.316659         1.490194
 H         1.231881         3.652524         2.335766
 H        -0.675764         2.105840         2.706978
