19
Iteration:   432charge 0 multiplicity 1
 O         0.265162         0.323399         0.182706
 C        -0.699607         1.169209         0.636900
 C        -2.126658         0.835170         0.616118
 C        -1.776672         2.050107        -0.231251
 C        -1.312314         3.263126         0.731350
 C        -0.400453         4.395579         0.232587
 O         0.986678         3.890035         0.282884
 C         1.113343         3.072057         1.508897
 C        -0.276051         2.351256         1.610939
 H         0.153370        -0.531697         0.537271
 H        -2.387439        -0.023989        -0.074139
 H        -2.628603         0.854656         1.614700
 H        -2.149741         2.093949        -1.307750
 H        -2.209492         3.808709         1.119537
 H        -0.619427         4.863098        -0.796163
 H        -0.549214         5.105231         1.086674
 H         2.048735         2.497455         1.492211
 H         1.149292         3.772436         2.452738
 H        -0.480453         2.281058         2.640259
