19
Iteration:  2851
 O         0.319399         0.241799         0.191374
 C        -0.683222         1.199087         0.665083
 C        -2.160855         0.987919         0.545456
 C        -1.534191         2.132436        -0.288332
 C        -1.342310         3.206128         0.740169
 C        -0.406147         4.322055         0.279873
 O         0.884377         3.743482         0.276278
 C         1.053271         3.141425         1.497129
 C        -0.408065         2.362503         1.617272
 H         0.980469         0.119143         0.880534
 H        -2.560726         0.201487        -0.044797
 H        -2.816439         1.251251         1.334418
 H        -1.445403         2.238199        -1.360017
 H        -2.239428         3.602591         1.327311
 H        -0.660779         4.766394        -0.636270
 H        -0.481578         5.070922         1.135245
 H         1.970537         2.550364         1.621760
 H         0.992725         3.842344         2.402132
 H        -0.612380         2.137229         2.654867
