19
Iteration:   871charge 0 multiplicity 1
 O         0.231780         0.226295         0.167187
 C        -0.650235         1.157144         0.708809
 C        -2.201922         0.932358         0.558007
 C        -1.497619         2.025298        -0.179963
 C        -1.246684         3.225307         0.777715
 C        -0.440804         4.460294         0.250126
 O         0.919328         3.933123         0.267007
 C         1.035715         3.104388         1.430071
 C        -0.282435         2.319999         1.672249
 H        -0.213529        -0.580698         0.162121
 H        -2.422229         0.081008        -0.024567
 H        -2.999073         1.166058         1.213006
 H        -1.406410         1.867476        -1.257383
 H        -2.207302         3.641654         1.308679
 H        -0.868828         4.600859        -0.775802
 H        -0.630778         5.326254         0.827671
 H         1.857534         2.516758         1.335525
 H         1.102955         3.747557         2.358673
 H        -0.603174         2.159412         2.787432
