19
Iteration:  4950charge 0 multiplicity 1
 O         0.323594         0.363062         0.398412
 C        -0.644796         1.218014         0.704332
 C        -2.033783         0.929199         0.250233
 C        -1.466910         2.155688        -0.237786
 C        -1.318284         3.282318         0.855790
 C        -0.407830         4.371122         0.225156
 O         0.830248         3.703243         0.257489
 C         0.940450         3.063362         1.466326
 C        -0.427323         2.312867         1.741426
 H         0.031356        -0.449253        -0.151332
 H        -1.997203         0.006888        -0.462661
 H        -3.044158         1.028903         0.756025
 H        -0.980321         2.368745        -1.219986
 H        -2.273658         3.757889         1.305215
 H        -0.895509         4.507275        -0.751068
 H        -0.407048         5.254274         0.973181
 H         1.803471         2.414663         1.346335
 H         0.886205         3.688848         2.351512
 H        -0.669717         2.141785         2.789597
