19
Iteration:  4012
 O         0.311491         0.211464         0.335011
 C        -0.765447         1.118589         0.648083
 C        -2.215988         0.855560         0.413708
 C        -1.571921         1.991195        -0.340654
 C        -1.301243         3.302656         0.642259
 C        -0.275306         4.344527         0.105687
 O         0.925624         4.263331         0.898233
 C         1.017086         2.893881         1.307535
 C        -0.391374         2.423518         1.573081
 H         0.132362        -0.596264         0.729113
 H        -2.504643        -0.035182        -0.184388
 H        -2.913708         1.071745         1.282676
 H        -1.563304         2.037087        -1.446131
 H        -2.168133         3.593572         1.132333
 H        -0.134828         4.023274        -0.940579
 H        -0.619924         5.348972        -0.156176
 H         1.582163         2.368126         0.450104
 H         1.757226         2.922425         2.084185
 H        -0.699233         2.300091         2.635614
