19
Iteration:  1472charge 0 multiplicity 1
 O         0.290826         0.257003         0.319363
 C        -0.642496         1.250072         0.510277
 C        -2.154898         1.043986         0.572812
 C        -1.550396         2.104861        -0.272774
 C        -1.296107         3.153495         0.743401
 C        -0.424885         4.420702         0.350345
 O         0.909807         3.909225         0.264417
 C         1.004095         2.975809         1.382722
 C        -0.337099         2.248527         1.611718
 H         0.254458        -0.113098         1.255030
 H        -2.573609         0.157068         0.099962
 H        -2.725871         1.288332         1.580959
 H        -1.637395         2.211927        -1.377617
 H        -2.236982         3.585903         1.117907
 H        -0.891396         4.807775        -0.600007
 H        -0.584904         5.154912         1.195267
 H         1.765479         2.159031         1.150902
 H         1.491633         3.515753         2.306185
 H        -0.634640         1.976378         2.627771
