19
Iteration:  3922
 O         0.190442         0.059475         0.326798
 C        -0.676143         1.203348         0.695023
 C        -2.198529         0.909078         0.365224
 C        -1.448498         2.080916        -0.296637
 C        -1.299480         3.306514         0.684639
 C        -0.395073         4.317234         0.046887
 O         0.846185         4.238720         0.845888
 C         1.083257         2.971538         1.299005
 C        -0.333999         2.324257         1.592796
 H        -0.283701        -0.666411         0.591501
 H        -2.218039         0.050580        -0.350363
 H        -3.065442         0.967148         1.156763
 H        -1.178445         2.255958        -1.325441
 H        -2.083275         3.832095         1.081874
 H        -0.076616         4.414797        -1.012113
 H        -0.850983         5.300400         0.205932
 H         1.828776         2.344364         0.788045
 H         1.554002         2.912908         2.281930
 H        -0.384827         2.245086         2.686134
