19
Iteration:   366charge 0 multiplicity 1
 O         0.253670         0.283883         0.339299
 C        -0.697229         1.202410         0.756163
 C        -2.126769         0.889886         0.350886
 C        -1.555183         2.151827        -0.234609
 C        -1.309604         3.241938         0.904980
 C        -0.466913         4.415201         0.416381
 O         0.908229         3.880182         0.106343
 C         1.043412         2.982542         1.288458
 C        -0.308104         2.345492         1.666471
 H         0.260846        -0.459639         0.998026
 H        -2.053504        -0.095527        -0.190777
 H        -2.995843         1.025503         1.040293
 H        -1.592314         2.293000        -1.329644
 H        -2.208972         3.587899         1.416006
 H        -0.921375         4.755258        -0.582043
 H        -0.254315         5.257512         1.119193
 H         1.912223         2.287340         1.192492
 H         1.333219         3.617065         2.225755
 H        -0.416668         2.130435         2.677997
