19
Iteration:  1165charge 0 multiplicity 1
 O         0.389986         0.279886         0.282316
 C        -0.691618         1.215725         0.647283
 C        -2.220725         0.899625         0.557247
 C        -1.542328         2.086104        -0.214408
 C        -1.365608         3.287797         0.788389
 C        -0.374318         4.425195         0.332467
 O         0.934771         3.855395         0.264783
 C         1.004184         2.974817         1.325554
 C        -0.379673         2.360012         1.581864
 H         0.220217        -0.455400         0.783784
 H        -2.479206         0.077400        -0.053042
 H        -2.952383         1.083454         1.330148
 H        -1.632436         2.200719        -1.341100
 H        -2.283971         3.536733         1.167907
 H        -0.678819         5.067351        -0.535672
 H        -0.456184         5.080183         1.179149
 H         1.754742         2.261715         1.069464
 H         1.237683         3.619580         2.200218
 H        -0.467663         2.145947         2.709065
