19
Iteration:  2764
 O         0.336235         0.142430         0.339808
 C        -0.639513         1.171059         0.613825
 C        -2.203226         0.974645         0.560038
 C        -1.541436         2.056516        -0.204064
 C        -1.324402         3.273573         0.712877
 C        -0.459534         4.379209         0.271453
 O         0.961006         3.886580         0.292015
 C         0.980609         3.064723         1.483743
 C        -0.346689         2.378319         1.573041
 H         0.416441         0.297867        -0.693029
 H        -2.610924         0.135919         0.006724
 H        -2.698322         1.139218         1.476682
 H        -1.777188         2.151456        -1.249240
 H        -2.304760         3.705241         1.212292
 H        -0.642492         4.696274        -0.750889
 H        -0.462423         5.306482         0.882682
 H         1.781442         2.460411         1.410565
 H         1.028284         3.779022         2.364260
 H        -0.459039         2.051532         2.594189
