19
Iteration:  1544
 O         0.432985         0.375874         0.280176
 C        -0.635025         1.251476         0.597071
 C        -2.157862         1.018609         0.448638
 C        -1.685115         2.205897        -0.164964
 C        -1.304427         3.283827         0.837434
 C        -0.400609         4.296886         0.215727
 O         0.852479         3.676866         0.222365
 C         0.984171         2.996453         1.464296
 C        -0.339747         2.328996         1.710526
 H         0.262796        -0.609684         0.520487
 H        -2.411430         0.288030        -0.300434
 H        -2.728432         0.958639         1.276345
 H        -1.776690         2.315508        -1.254050
 H        -2.170146         3.677082         1.404867
 H        -0.653806         4.532310        -0.769544
 H        -0.455766         5.193422         0.877367
 H         1.869066         2.393793         1.285107
 H         1.233861         3.623972         2.379103
 H        -0.658782         1.971530         2.721533
