19
Iteration:  1791charge 0 multiplicity 1
 O         0.267192         0.276692         0.160988
 C        -0.612466         1.190053         0.705274
 C        -2.169371         0.978521         0.630989
 C        -1.449014         2.117051        -0.290126
 C        -1.332932         3.240972         0.688477
 C        -0.467161         4.419995         0.288605
 O         0.912875         3.843590         0.322148
 C         1.040587         2.955509         1.434341
 C        -0.393077         2.375403         1.642665
 H         0.348536        -0.534185         0.581858
 H        -2.503537         0.044907         0.187517
 H        -2.887410         1.610777         1.326500
 H        -1.384580         1.854396        -1.338360
 H        -2.282873         3.575675         1.278372
 H        -0.737101         4.866886        -0.752507
 H        -0.477438         5.310070         1.003453
 H         1.639828         2.039027         1.234482
 H         1.226223         3.528951         2.333601
 H        -0.607115         2.222889         2.695239
