19
Iteration:   346charge 0 multiplicity 1
 O         0.346843         0.208883         0.370040
 C        -0.734414         1.081735         0.677412
 C        -2.198142         0.875804         0.377938
 C        -1.570301         2.183528        -0.106872
 C        -1.298189         3.275564         0.853392
 C        -0.400793         4.481121         0.363409
 O         0.833529         3.871447         0.151913
 C         1.049200         3.062898         1.276556
 C        -0.326813         2.316581         1.609773
 H         0.401762        -0.448322         1.210224
 H        -2.369007         0.372081        -0.609693
 H        -2.984023         0.692880         1.088972
 H        -1.380586         2.279140        -1.234462
 H        -2.093804         3.693898         1.363762
 H        -0.563779         5.176533        -0.528139
 H        -0.282660         5.099070         1.266817
 H         1.898633         2.460153         1.068029
 H         1.340381         3.613218         2.178008
 H        -0.493067         2.218147         2.709792
