19
Iteration:  1151charge 0 multiplicity 1
 O         0.330066         0.383986         0.275555
 C        -0.658196         1.205371         0.644739
 C        -2.094440         1.043352         0.543118
 C        -1.546946         2.090539        -0.254342
 C        -1.294163         3.216297         0.699574
 C        -0.449692         4.367361         0.399625
 O         0.811455         3.781932         0.185664
 C         1.036944         2.967991         1.429808
 C        -0.351601         2.345420         1.636294
 H         0.234016        -0.595574         0.688197
 H        -2.528786         0.094973         0.071433
 H        -2.700809         1.246155         1.420460
 H        -1.575982         2.078909        -1.337684
 H        -2.160675         3.639275         1.279248
 H        -0.634902         4.825340        -0.525718
 H        -0.366143         5.241209         1.057658
 H         1.791495         2.082105         1.202807
 H         1.375952         3.503080         2.355713
 H        -0.789735         2.170123         2.702715
