19
Iteration:  4114charge 0 multiplicity 1
 O         0.194314         0.112292         0.153538
 C        -0.709522         1.097636         0.581333
 C        -2.154761         0.954450         0.657706
 C        -1.536386         1.959599        -0.396059
 C        -1.261064         3.284664         0.555113
 C        -0.234317         4.279486         0.049241
 O         0.866159         4.341439         0.963898
 C         0.992916         3.035092         1.460954
 C        -0.357475         2.348984         1.521999
 H        -0.101019        -0.773453         0.631118
 H        -2.554204         0.118612         0.143527
 H        -2.588439         1.230831         1.527929
 H        -1.679012         1.764540        -1.458514
 H        -2.142668         3.695586         1.036968
 H         0.177090         3.689607        -0.827490
 H        -0.687268         5.310583        -0.218312
 H         1.760286         2.601600         0.674200
 H         1.469277         3.000340         2.426825
 H        -0.884739         2.372668         2.528446
