19
Iteration:  4047charge 0 multiplicity 1
 O         0.245022         0.187586         0.290412
 C        -0.702924         1.159070         0.649386
 C        -2.183467         0.928789         0.417261
 C        -1.554492         2.081970        -0.322505
 C        -1.256591         3.251353         0.674010
 C        -0.275150         4.174338        -0.023407
 O         0.803686         4.308017         0.942765
 C         1.058275         2.955385         1.319282
 C        -0.356448         2.385224         1.653775
 H        -0.150933        -0.622352         0.158410
 H        -2.396255         0.023147        -0.081019
 H        -2.848027         1.130109         1.202529
 H        -1.513127         1.979546        -1.405288
 H        -2.099985         3.692300         1.168490
 H         0.089891         3.552901        -0.815459
 H        -0.534645         5.259786        -0.235243
 H         1.342347         2.273921         0.531010
 H         1.767333         3.032072         2.080452
 H        -0.579151         2.308202         2.768213
