19
Iteration:  3949charge 0 multiplicity 1
 O         0.131869         0.042396         0.254179
 C        -0.659899         1.120873         0.701804
 C        -2.241626         0.981567         0.407170
 C        -1.433256         1.961988        -0.360147
 C        -1.261497         3.164421         0.584605
 C        -0.392763         4.367070         0.179585
 O         0.973493         4.348759         0.771102
 C         0.992957         3.035277         1.397931
 C        -0.333291         2.331066         1.598128
 H         0.318491        -0.508328         0.954628
 H        -2.578083         0.167752        -0.191211
 H        -2.773992         1.215080         1.251451
 H        -1.396684         2.058964        -1.468608
 H        -2.254205         3.619480         1.020384
 H        -0.106530         4.417241        -0.879611
 H        -0.927736         5.377531         0.437893
 H         1.600295         2.365753         0.806586
 H         1.504676         2.955724         2.361052
 H        -0.510046         2.306951         2.696099
