19
Iteration:  3417charge 0 multiplicity 1
 O         0.275569         0.296473         0.273183
 C        -0.715966         1.154186         0.578357
 C        -2.108068         0.840202         0.599829
 C        -1.579695         2.045250        -0.291932
 C        -1.364495         3.268999         0.625253
 C        -0.403787         4.363594         0.092962
 O         0.995826         3.968995         0.577754
 C         0.998430         2.944027         1.545883
 C        -0.418084         2.407173         1.619846
 H         1.130821         0.631139        -0.254586
 H        -2.576530         0.011116        -0.026873
 H        -2.843232         1.244364         1.324060
 H        -1.576471         2.032802        -1.425041
 H        -2.219780         3.633351         1.094313
 H        -0.366166         4.731337        -0.992434
 H        -0.583536         5.272268         0.625854
 H         1.752664         2.065700         1.154212
 H         1.435692         3.356229         2.503464
 H        -0.787306         2.264049         2.641594
