19
Iteration:  4892charge 0 multiplicity 1
 O         0.274308         0.308936         0.278855
 C        -0.612331         1.183860         0.638957
 C        -2.113287         0.933154         0.533931
 C        -1.459925         2.013473        -0.331769
 C        -1.399935         3.257851         0.557521
 C        -0.427776         4.423518         0.313889
 O         1.023112         3.947292         0.442331
 C         0.908946         2.949285         1.527980
 C        -0.434875         2.336765         1.515765
 H         0.666366        -0.297382         0.851544
 H        -2.413774        -0.050941         0.062165
 H        -2.645259         1.195032         1.581687
 H        -1.829908         1.969667        -1.360742
 H        -2.373805         3.613729         0.896952
 H        -0.555219         4.944830        -0.601338
 H        -0.640623         5.312745         1.044337
 H         1.772730         2.249444         1.313841
 H         1.187261         3.391865         2.507844
 H        -0.840097         2.172581         2.573774
