19
Iteration:  3710
 O         0.304203         0.246352         0.259271
 C        -0.725313         1.176960         0.608190
 C        -2.206323         0.861210         0.573122
 C        -1.641611         2.122764        -0.241133
 C        -1.261007         3.249737         0.623841
 C        -0.182404         4.232780        -0.032372
 O         0.789327         4.289811         0.923840
 C         1.042687         2.897752         1.314611
 C        -0.360290         2.313843         1.562470
 H         0.019019        -0.636409         0.577236
 H        -2.523720         0.039351        -0.049239
 H        -2.895987         1.059607         1.351328
 H        -1.665066         2.146968        -1.341820
 H        -2.103997         3.752247         1.021051
 H         0.219285         3.887961        -1.044531
 H        -0.677060         5.192121        -0.277626
 H         1.697027         2.410219         0.490738
 H         1.595159         2.833342         2.316317
 H        -0.542443         2.266589         2.635666
