19
Iteration:  1686charge 0 multiplicity 1
 O         0.265816         0.342362         0.180293
 C        -0.678464         1.128080         0.732514
 C        -2.212620         0.807349         0.579248
 C        -1.502900         2.076121        -0.168968
 C        -1.307486         3.288955         0.666426
 C        -0.360086         4.471977         0.335529
 O         0.930148         3.828583         0.302227
 C         1.025604         3.015188         1.422138
 C        -0.388904         2.399914         1.582721
 H         0.094949        -0.577855         0.282293
 H        -2.573919         0.215319        -0.191571
 H        -2.904450         0.910280         1.352961
 H        -1.374375         1.990288        -1.308501
 H        -2.162906         3.703317         1.074112
 H        -0.570268         4.849290        -0.630904
 H        -0.294774         5.288962         1.079010
 H         1.801024         2.307092         1.400038
 H         1.241824         3.613880         2.248773
 H        -0.681306         2.486111         2.665256
