19
Iteration:  2796charge 0 multiplicity 1
 O         0.362499         0.380346         0.316888
 C        -0.667168         1.285490         0.682696
 C        -2.198566         0.876586         0.513635
 C        -1.553784         2.041296        -0.213172
 C        -1.384404         3.288335         0.706854
 C        -0.447798         4.360402         0.203363
 O         0.954860         3.898063         0.373592
 C         1.059001         2.908537         1.390504
 C        -0.365719         2.368564         1.651325
 H        -0.022647        -0.384276        -0.012053
 H        -2.402260         0.031196        -0.133802
 H        -2.815642         1.032640         1.348269
 H        -1.652287         2.090083        -1.278684
 H        -2.334754         3.726330         1.192290
 H        -0.634850         4.437978        -0.837357
 H        -0.576662         5.387418         0.711681
 H         1.664011         2.069456         1.128994
 H         1.453727         3.310722         2.424288
 H        -0.438024         2.074901         2.681677
