19
Iteration:  1759charge 0 multiplicity 1
 O         0.284033         0.267663         0.293751
 C        -0.709158         1.168369         0.721345
 C        -2.100991         0.883518         0.409474
 C        -1.554546         2.222039        -0.164154
 C        -1.345047         3.255104         0.837242
 C        -0.399468         4.375170         0.343044
 O         0.984371         3.817407         0.177967
 C         0.978562         3.003902         1.364530
 C        -0.403593         2.398584         1.613804
 H         0.248886        -0.611918         0.826301
 H        -2.204668         0.124739        -0.370583
 H        -3.027937         0.933679         1.156976
 H        -1.583197         2.255546        -1.243869
 H        -2.164037         3.775053         1.406830
 H        -0.590829         4.800232        -0.709311
 H        -0.503447         5.148415         1.153725
 H         1.898474         2.448522         1.265639
 H         1.173358         3.684020         2.302774
 H        -0.517256         2.172297         2.644290
