19
Iteration:  1884charge 0 multiplicity 1
 O         0.345470         0.374060         0.100610
 C        -0.661942         1.173105         0.684915
 C        -2.133358         1.058916         0.680159
 C        -1.510877         2.067889        -0.241161
 C        -1.358890         3.274474         0.760254
 C        -0.394133         4.300888         0.245372
 O         0.922129         3.739717         0.327963
 C         0.929669         3.020307         1.472595
 C        -0.369990         2.364416         1.605856
 H         0.065978        -0.461402         0.534939
 H        -2.490696         0.257908         0.026434
 H        -2.757711         1.330869         1.513726
 H        -1.416709         2.012233        -1.329327
 H        -2.321643         3.627990         1.103976
 H        -0.606100         4.527083        -0.778422
 H        -0.377893         5.349205         0.698045
 H         1.810698         2.306785         1.318875
 H         1.102232         3.720019         2.378765
 H        -0.679769         2.160586         2.665086
