19
Iteration:  3556
 O         0.137159         0.078119         0.430241
 C        -0.635700         1.131599         0.634335
 C        -2.105821         0.920855         0.524146
 C        -1.566054         2.108042        -0.290440
 C        -1.323070         3.254406         0.600158
 C        -0.332935         4.296352         0.062254
 O         0.864237         4.275457         0.829138
 C         1.022689         2.961579         1.282646
 C        -0.343690         2.309118         1.515281
 H         0.847713         0.291816        -0.086907
 H        -2.420865         0.035461        -0.005676
 H        -2.728964         1.159135         1.370145
 H        -1.363140         2.151034        -1.400217
 H        -2.260357         3.706134         1.092236
 H        -0.194649         4.194594        -0.998019
 H        -0.816834         5.337915         0.207479
 H         1.589615         2.334741         0.460511
 H         1.832738         2.984747         2.201185
 H        -0.492546         2.142462         2.585207
