19
Iteration:  4333
 O         0.224414         0.134816         0.266451
 C        -0.655065         1.138270         0.632856
 C        -2.147358         0.977110         0.530830
 C        -1.544593         1.903740        -0.352717
 C        -1.300136         3.253612         0.482151
 C        -0.223805         4.385825         0.123078
 O         0.870161         4.332242         1.041672
 C         1.003971         2.884315         1.275178
 C        -0.430859         2.321096         1.494704
 H         0.351009        -0.398435         1.053211
 H        -2.476700        -0.004750         0.153777
 H        -2.821543         1.400211         1.356650
 H        -1.800636         1.795538        -1.420327
 H        -2.157147         3.663256         1.066820
 H         0.202193         4.583315        -0.892568
 H        -0.864249         5.391856         0.219160
 H         1.364602         2.416422         0.330013
 H         1.764343         2.709177         1.947217
 H        -0.890180         2.386020         2.533917
