19
Iteration:  2085charge 0 multiplicity 1
 O         0.302893         0.298324         0.210875
 C        -0.715629         1.244209         0.657965
 C        -2.143945         0.803359         0.563880
 C        -1.638809         2.019610        -0.243209
 C        -1.341590         3.380255         0.744307
 C        -0.374253         4.432099         0.284002
 O         0.984116         3.841750         0.331831
 C         1.011271         3.028219         1.415919
 C        -0.398032         2.379526         1.611761
 H         0.366593        -0.443019         0.917974
 H        -2.193219        -0.098136        -0.059985
 H        -2.883504         0.993656         1.309472
 H        -1.465933         2.175019        -1.288943
 H        -2.277734         3.697379         1.226086
 H        -0.519532         4.666053        -0.777438
 H        -0.471808         5.291854         0.954974
 H         1.718483         2.151503         1.006379
 H         1.444721         3.427981         2.327239
 H        -0.488661         2.226472         2.770509
