19
Iteration:    15
 O         0.289054         0.240784         0.146901
 C        -0.756231         1.110343         0.725333
 C        -2.188363         0.757655         0.632746
 C        -1.488944         2.150850        -0.145326
 C        -1.318677         3.358775         0.743827
 C        -0.451491         4.517072         0.241617
 O         0.966313         3.942874         0.230176
 C         1.015981         2.963803         1.417399
 C        -0.385996         2.402666         1.657071
 H         0.389386        -0.603274         0.743407
 H        -2.222812         0.087165        -0.204656
 H        -2.722567         0.429414         1.575931
 H        -1.210445         2.178878        -1.200932
 H        -2.209620         3.692893         1.112920
 H        -0.603758         4.743968        -0.885219
 H        -0.495485         5.233543         0.990873
 H         1.651402         2.097620         0.983901
 H         1.389097         3.573346         2.259005
 H        -0.558446         2.274552         2.803594
