19
Iteration:  4319charge 0 multiplicity 1
 O         0.271351         0.177082         0.264887
 C        -0.738550         1.119922         0.644390
 C        -2.198888         0.894997         0.638983
 C        -1.486568         1.966031        -0.342126
 C        -1.201706         3.227327         0.428161
 C        -0.231813         4.433074         0.143450
 O         0.852151         4.283137         1.076716
 C         0.947406         2.881210         1.203602
 C        -0.440262         2.424425         1.471242
 H         0.065301        -0.711893         0.748382
 H        -2.514486        -0.020414        -0.002069
 H        -2.853721         1.111014         1.614088
 H        -1.327824         1.806278        -1.422620
 H        -2.249866         3.695145         0.673874
 H         0.071167         4.325360        -0.974053
 H        -0.664030         5.436502         0.404246
 H         1.317515         2.425625         0.258045
 H         1.699012         2.619742         1.984618
 H        -0.704524         2.374568         2.512583
