19
Iteration:  3808charge 0 multiplicity 1
 O         0.118060         0.026386         0.350631
 C        -0.629550         1.116579         0.553094
 C        -2.216609         0.989413         0.476854
 C        -1.605494         2.108046        -0.294391
 C        -1.219660         3.161631         0.647707
 C        -0.312215         4.224628         0.021615
 O         0.801284         4.362846         0.888057
 C         1.087919         3.034064         1.455799
 C        -0.247858         2.330439         1.513319
 H         0.305644        -0.151064        -0.556183
 H        -2.557152         0.295363        -0.269834
 H        -2.871312         1.147737         1.227053
 H        -1.296664         2.171564        -1.350155
 H        -1.946934         3.657036         1.220237
 H        -0.036557         3.905222        -1.027355
 H        -0.770615         5.242481        -0.045659
 H         1.881601         2.464366         1.081821
 H         1.527130         3.198999         2.452213
 H        -0.621527         2.044768         2.478656
