19
Iteration:  1493
 O         0.362026         0.288997         0.224952
 C        -0.707191         1.152411         0.753184
 C        -2.146090         0.953481         0.537164
 C        -1.452058         2.121124        -0.218328
 C        -1.370825         3.326349         0.763789
 C        -0.385407         4.450182         0.369256
 O         0.842695         3.787287         0.256198
 C         1.005827         2.924556         1.325425
 C        -0.388702         2.416236         1.601475
 H         0.491953        -0.643516         0.687500
 H        -2.415146         0.118704        -0.093866
 H        -3.027788         1.133619         1.265338
 H        -1.408819         2.167834        -1.338407
 H        -2.300824         3.736406         1.281711
 H        -0.625049         4.850898        -0.621366
 H        -0.510563         5.209871         1.174830
 H         1.779272         2.138252         1.064634
 H         1.406237         3.518226         2.197451
 H        -0.719034         2.191069         2.585642
