19
Iteration:  1559
 O         0.465874         0.336509         0.208100
 C        -0.638689         1.187024         0.568989
 C        -2.109920         0.964440         0.595128
 C        -1.577548         2.212772        -0.185349
 C        -1.372267         3.310653         0.829705
 C        -0.420438         4.358677         0.230044
 O         0.937100         3.716499         0.219579
 C         0.957824         2.981706         1.537120
 C        -0.459410         2.297389         1.588545
 H         0.156800        -0.460151         0.480327
 H        -2.677379         0.181799         0.084421
 H        -2.765122         1.226631         1.541540
 H        -1.998095         2.541819        -1.167709
 H        -2.316097         3.766977         1.336372
 H        -0.600756         4.620250        -0.840776
 H        -0.312045         5.301838         0.730895
 H         1.710932         2.138327         1.574868
 H         1.040185         3.699330         2.283640
 H        -0.617875         2.151508         2.644741
