19
Iteration:  3567
 O         0.217607         0.060091         0.451653
 C        -0.717429         1.147317         0.627735
 C        -2.180941         0.957410         0.426794
 C        -1.556485         2.071085        -0.275300
 C        -1.290911         3.229869         0.711994
 C        -0.341480         4.248480         0.048506
 O         0.884930         4.346833         0.840428
 C         1.040981         2.937826         1.183817
 C        -0.357898         2.307024         1.571416
 H         1.058662         0.464569         0.144652
 H        -2.462219         0.107867        -0.166009
 H        -2.749430         1.117696         1.322049
 H        -1.720512         2.242594        -1.380410
 H        -2.202052         3.784496         1.093886
 H        -0.068069         3.915559        -0.936217
 H        -0.719948         5.338601         0.032869
 H         1.580993         2.359062         0.326654
 H         1.636185         2.907020         2.226937
 H        -0.541406         2.242101         2.640643
