19
Iteration:  1776
 O         0.239556         0.311148         0.198443
 C        -0.716304         1.238351         0.702559
 C        -2.160393         0.922240         0.499405
 C        -1.479824         1.998127        -0.239953
 C        -1.304495         3.290606         0.734044
 C        -0.394203         4.435746         0.332822
 O         0.873078         3.816574         0.240604
 C         1.043414         3.009892         1.450138
 C        -0.332659         2.383716         1.704994
 H         0.042857        -0.504558         0.711667
 H        -2.338604         0.011115        -0.083543
 H        -2.861624         1.011461         1.238342
 H        -1.304576         2.154653        -1.288233
 H        -2.311256         3.593512         1.085585
 H        -0.565474         4.813754        -0.674522
 H        -0.486345         5.254850         1.064512
 H         1.891426         2.265184         1.115373
 H         1.505862         3.556662         2.262216
 H        -0.631715         2.230669         2.820223
