19
Iteration:  1797
 O         0.284307         0.270612         0.149526
 C        -0.656659         1.181141         0.686154
 C        -2.127015         1.046886         0.647642
 C        -1.439648         2.065113        -0.248764
 C        -1.340170         3.272964         0.712672
 C        -0.456063         4.372954         0.262428
 O         0.925639         3.877546         0.347188
 C         0.985887         2.959536         1.413986
 C        -0.400106         2.344156         1.579970
 H         0.404589        -0.596896         0.742130
 H        -2.594426         0.153099         0.230496
 H        -2.733067         1.428569         1.395564
 H        -1.488584         2.117864        -1.355033
 H        -2.268594         3.538722         1.176384
 H        -0.685392         4.795399        -0.682615
 H        -0.464499         5.151181         1.007888
 H         1.736768         2.093497         1.316344
 H         1.265675         3.483852         2.371175
 H        -0.712369         2.325730         2.682069
