19
Iteration:  1366
 O         0.409842         0.323669         0.241373
 C        -0.679830         1.198015         0.615807
 C        -2.095000         0.857180         0.562418
 C        -1.707310         2.188007        -0.122117
 C        -1.383490         3.295246         0.813588
 C        -0.334137         4.420138         0.252750
 O         1.030804         3.774214         0.186871
 C         0.892387         3.005218         1.467225
 C        -0.411266         2.338604         1.534149
 H         0.304650        -0.416369         0.996755
 H        -2.352173         0.259716        -0.319613
 H        -2.855287         0.762925         1.429801
 H        -1.825579         2.143196        -1.232447
 H        -2.111547         3.758401         1.527652
 H        -0.829365         4.822316        -0.756667
 H        -0.292554         5.172020         0.998116
 H         1.726290         2.266578         1.446881
 H         1.173066         3.663244         2.342092
 H        -0.744828         2.146158         2.707727
