19
Iteration:  2825
 O         0.344617         0.310664         0.246648
 C        -0.665409         1.257521         0.677753
 C        -2.122065         0.821902         0.507862
 C        -1.623346         2.118079        -0.203399
 C        -1.282389         3.310245         0.757235
 C        -0.379000         4.446169         0.217042
 O         0.955881         3.860146         0.304080
 C         0.954980         2.950661         1.390085
 C        -0.457250         2.347822         1.667427
 H         0.605342        -0.226346         1.055125
 H        -2.309527         0.116593        -0.352943
 H        -2.843291         0.827824         1.375008
 H        -1.783018         2.153496        -1.295893
 H        -2.074600         3.739358         1.252553
 H        -0.718979         4.588961        -0.835263
 H        -0.507019         5.312548         0.832045
 H         1.730117         2.056466         1.401356
 H         1.157920         3.374056         2.316196
 H        -0.557528         2.073521         2.756430
