19
Iteration:  4952charge 0 multiplicity 1
 O         0.328949         0.369129         0.402561
 C        -0.649539         1.211574         0.693688
 C        -2.049278         0.919003         0.239367
 C        -1.459897         2.143869        -0.243017
 C        -1.310248         3.283811         0.835229
 C        -0.401386         4.382998         0.240437
 O         0.821881         3.711176         0.241190
 C         0.935556         3.052105         1.469652
 C        -0.438908         2.311191         1.771988
 H         0.053104        -0.350379        -0.146476
 H        -1.980609         0.028985        -0.360912
 H        -2.953778         1.056627         0.763051
 H        -1.067809         2.392451        -1.228591
 H        -2.252124         3.743322         1.347451
 H        -0.881206         4.478059        -0.796761
 H        -0.382781         5.269831         0.974723
 H         1.773991         2.393294         1.383286
 H         1.054507         3.683431         2.383634
 H        -0.680661         2.136037         2.788042
