19
Iteration:  1623
 O         0.233973         0.282804         0.085483
 C        -0.693971         1.168559         0.636605
 C        -2.155770         0.898411         0.616589
 C        -1.603664         2.111869        -0.133940
 C        -1.236886         3.266603         0.757173
 C        -0.348078         4.374862         0.082292
 O         0.960961         3.949333         0.408876
 C         0.939934         3.014562         1.517104
 C        -0.332417         2.267909         1.641791
 H         0.677766        -0.238221         0.731374
 H        -2.495479         0.082312         0.024332
 H        -2.819443         1.211189         1.401622
 H        -1.677988         2.235989        -1.244264
 H        -2.176471         3.725996         1.237943
 H        -0.477885         4.362174        -0.975077
 H        -0.667554         5.396669         0.453289
 H         1.930042         2.503778         1.278506
 H         0.984777         3.547584         2.572642
 H        -0.614174         1.998478         2.684415
