19
Iteration:  3230
 O         0.281383         0.267305         0.301144
 C        -0.645055         1.180963         0.641281
 C        -2.163004         0.948922         0.370066
 C        -1.547313         2.121248        -0.277626
 C        -1.247922         3.240473         0.760278
 C        -0.428807         4.327951         0.168956
 O         0.927445         3.963327         0.411043
 C         0.984074         3.052318         1.580115
 C        -0.350432         2.293977         1.635370
 H        -0.109505        -0.677412         0.181807
 H        -2.265165         0.048150        -0.246846
 H        -2.924265         0.899805         1.171298
 H        -1.480101         2.139501        -1.365770
 H        -2.090491         3.645121         1.290533
 H        -0.708243         4.575004        -0.905690
 H        -0.603367         5.302674         0.630680
 H         1.897096         2.577098         1.621543
 H         0.961500         3.655022         2.551604
 H        -0.620419         1.933251         2.627975
