19
Iteration:  3349
 O         0.242863         0.208880         0.189336
 C        -0.627799         1.278597         0.685010
 C        -2.070752         0.876786         0.418533
 C        -1.499303         2.110573        -0.244005
 C        -1.333066         3.221686         0.834670
 C        -0.381720         4.345552         0.149048
 O         0.946401         3.780626         0.320846
 C         0.883635         3.126100         1.579367
 C        -0.443380         2.358645         1.724083
 H         1.044353         0.639528         0.206864
 H        -2.279174         0.048216        -0.250548
 H        -2.937329         1.159592         1.055253
 H        -1.453943         2.346022        -1.301230
 H        -2.230872         3.630084         1.349864
 H        -0.500487         4.646446        -0.954392
 H        -0.587437         5.267030         0.685670
 H         1.833581         2.375290         1.627586
 H         0.997543         3.927847         2.375040
 H        -0.637742         2.073376         2.772857
