19
Iteration:  1321charge 0 multiplicity 1
 O         0.381610         0.515649         0.117142
 C        -0.597348         1.267692         0.723297
 C        -2.177153         1.003913         0.531789
 C        -1.448932         2.102247        -0.129254
 C        -1.330005         3.292561         0.845202
 C        -0.452850         4.284935         0.194756
 O         0.899559         3.652510         0.124793
 C         0.941359         2.900576         1.508284
 C        -0.465387         2.372946         1.739613
 H         0.347911        -0.475471         0.521190
 H        -2.250520        -0.007693        -0.022443
 H        -2.978442         1.274069         1.315332
 H        -1.213971         2.307523        -1.160088
 H        -2.283553         3.671160         1.247676
 H        -0.815786         4.565996        -0.956457
 H        -0.503126         5.147613         0.818713
 H         1.686300         2.100650         1.556908
 H         1.162248         3.646156         2.367206
 H        -0.671096         2.156608         2.955537
