19
Iteration:   453
 O         0.277298         0.274463         0.086544
 C        -0.642983         1.272264         0.587969
 C        -2.094529         0.821501         0.622457
 C        -1.714103         2.089142        -0.077990
 C        -1.350053         3.254411         0.838880
 C        -0.355688         4.317982         0.156329
 O         1.009259         3.868988         0.339014
 C         0.991754         3.119130         1.476764
 C        -0.357903         2.404464         1.587458
 H         0.145320        -0.509045         0.781690
 H        -2.279468         0.001627        -0.148155
 H        -2.805679         0.827540         1.507439
 H        -1.770227         2.299289        -1.182964
 H        -2.189658         3.821181         1.429278
 H        -0.490501         4.263845        -0.966794
 H        -0.547503         5.317196         0.580846
 H         1.726225         2.293597         1.344465
 H         1.178665         3.703069         2.391725
 H        -0.653897         2.116755         2.634551
