19
Iteration:  2435charge 0 multiplicity 1
 O         0.244208         0.271731         0.198412
 C        -0.665098         1.191024         0.691869
 C        -2.108355         0.924667         0.607290
 C        -1.526040         2.069060        -0.199043
 C        -1.326504         3.261268         0.673148
 C        -0.414477         4.390656         0.240783
 O         0.925372         3.849539         0.278946
 C         0.982295         2.942372         1.473778
 C        -0.411097         2.406796         1.680904
 H         0.873362         0.914332        -0.109007
 H        -2.488462         0.044112         0.049747
 H        -2.556663         1.010557         1.543287
 H        -1.400977         1.882862        -1.250699
 H        -2.272660         3.839103         1.038800
 H        -0.631434         4.733679        -0.734916
 H        -0.484750         5.197796         0.981652
 H         1.914425         2.255553         1.196659
 H         1.346114         3.472531         2.356078
 H        -0.775063         2.245412         2.753975
