19
Iteration:  2804charge 0 multiplicity 1
 O         0.360735         0.371670         0.298483
 C        -0.640047         1.199451         0.672975
 C        -2.162207         0.876525         0.470908
 C        -1.604539         2.103311        -0.143426
 C        -1.450763         3.321375         0.722809
 C        -0.385591         4.341476         0.214383
 O         0.949178         3.890097         0.364609
 C         1.033782         2.934338         1.411955
 C        -0.363261         2.401401         1.608604
 H         0.144904        -0.511548         0.318655
 H        -2.228647        -0.076698        -0.113347
 H        -2.809851         0.943070         1.376470
 H        -1.645966         2.170885        -1.244401
 H        -2.295519         3.750066         1.135978
 H        -0.569065         4.430613        -0.845137
 H        -0.664111         5.245342         0.786402
 H         1.672492         1.889161         1.042743
 H         1.652582         3.234708         2.263414
 H        -0.728960         2.385112         2.665164
