19
Iteration:  2040
 O         0.275382         0.241852         0.259763
 C        -0.676786         1.149071         0.623281
 C        -2.212443         1.011175         0.535515
 C        -1.481730         2.081080        -0.249724
 C        -1.294812         3.241162         0.802898
 C        -0.415503         4.342435         0.167995
 O         0.897326         3.971156         0.407944
 C         0.997013         3.031270         1.429312
 C        -0.282545         2.360683         1.575103
 H         0.062604        -0.671507         0.698639
 H        -2.600985        -0.002659         0.259312
 H        -2.782833         1.252201         1.415347
 H        -1.593560         2.235202        -1.324671
 H        -2.289299         3.337982         1.388293
 H        -0.518677         4.482846        -0.934182
 H        -0.501139         5.290597         0.736204
 H         1.780623         2.194783         0.983872
 H         1.313412         3.593905         2.284655
 H        -0.616933         2.056621         2.684938
