19
Iteration:  2605
 O         0.243518         0.248275         0.189727
 C        -0.641130         1.240835         0.644671
 C        -2.107502         0.977206         0.538382
 C        -1.534807         2.068416        -0.194062
 C        -1.340596         3.289171         0.804518
 C        -0.436677         4.263210         0.168257
 O         0.892297         3.760200         0.281894
 C         1.005825         3.094218         1.560501
 C        -0.328878         2.385827         1.648053
 H         0.990325         0.856182         0.115679
 H        -2.393781         0.056363        -0.025337
 H        -2.696019         1.076675         1.495481
 H        -1.750212         2.206013        -1.224419
 H        -2.309504         3.618002         1.293098
 H        -0.681999         4.460795        -0.921610
 H        -0.452627         5.242038         0.663171
 H         1.789724         2.405556         1.471554
 H         1.180369         3.834291         2.383329
 H        -0.635379         2.045150         2.646729
