19
Iteration:  3094charge 0 multiplicity 1
 O         0.414030         0.334088         0.332912
 C        -0.642851         1.208186         0.606765
 C        -2.147198         0.953439         0.498604
 C        -1.536227         2.127519        -0.305400
 C        -1.364467         3.272321         0.759372
 C        -0.376794         4.380054         0.293180
 O         0.929352         3.813357         0.351840
 C         0.912193         2.937250         1.542269
 C        -0.410633         2.311562         1.566501
 H         0.188314        -0.180456        -0.533295
 H        -2.606102         0.123128        -0.033606
 H        -2.837616         1.287748         1.300591
 H        -1.610146         2.094758        -1.372088
 H        -2.222865         3.650724         1.187861
 H        -0.614028         4.636457        -0.770343
 H        -0.497392         5.342430         0.826944
 H         1.873562         2.235197         1.506997
 H         1.040221         3.724919         2.283873
 H        -0.796590         2.212078         2.608448
