19
Iteration:   158charge 0 multiplicity 1
 O         0.504180         0.356811         0.208898
 C        -0.655410         1.247650         0.570130
 C        -2.135442         0.928886         0.632411
 C        -1.630583         2.182283        -0.195284
 C        -1.307675         3.349125         0.864197
 C        -0.426739         4.377170         0.228226
 O         0.803903         3.676749         0.217262
 C         0.961714         2.925771         1.399642
 C        -0.405983         2.378846         1.660090
 H         0.557784        -0.299881         1.021767
 H        -2.368913         0.007709        -0.001871
 H        -2.821322         1.074985         1.538130
 H        -1.704506         2.450939        -1.268239
 H        -2.137672         3.800802         1.331008
 H        -0.683139         4.505402        -0.930807
 H        -0.355640         5.323521         0.756725
 H         1.787336         2.127880         1.223210
 H         1.210948         3.483064         2.319417
 H        -0.600342         2.084225         2.759943
