19
Iteration:   554
 O         0.367285         0.370549         0.243482
 C        -0.659628         1.218891         0.643168
 C        -2.127280         0.992393         0.557762
 C        -1.578886         2.196659        -0.160989
 C        -1.348289         3.222084         0.824804
 C        -0.442607         4.325994         0.225097
 O         0.897114         3.759193         0.214910
 C         1.033785         3.000882         1.384116
 C        -0.391330         2.325134         1.701500
 H         0.370023        -0.483893         0.788308
 H        -2.406505         0.359845        -0.265149
 H        -2.840707         1.074464         1.346905
 H        -1.608936         2.231802        -1.217128
 H        -2.266908         3.606251         1.277766
 H        -0.838830         4.594253        -0.800134
 H        -0.450172         5.212197         0.832385
 H         1.700195         2.227377         1.210226
 H         1.414370         3.547183         2.182810
 H        -0.517979         1.945715         2.690439
