19
Iteration:   448
 O         0.269127         0.269982         0.110438
 C        -0.645261         1.269992         0.611420
 C        -2.099345         0.816593         0.619557
 C        -1.758566         2.082781        -0.103926
 C        -1.369317         3.243805         0.790667
 C        -0.332568         4.327944         0.188548
 O         1.002699         3.886558         0.310631
 C         1.053509         3.136622         1.515337
 C        -0.367864         2.383976         1.579156
 H         0.161040        -0.453640         0.659157
 H        -2.135778        -0.052704        -0.002272
 H        -2.897854         0.799824         1.332026
 H        -1.941616         2.272576        -1.124803
 H        -2.066640         3.678870         1.485425
 H        -0.455429         4.400865        -0.862778
 H        -0.462540         5.341982         0.603274
 H         1.777113         2.341333         1.268687
 H         1.285176         3.787266         2.386957
 H        -0.765135         2.015652         2.591711
