19
Iteration:  3560
 O         0.157887         0.072948         0.449657
 C        -0.663731         1.131756         0.632220
 C        -2.117349         0.952451         0.462078
 C        -1.576131         2.079808        -0.277101
 C        -1.324515         3.246674         0.646028
 C        -0.340183         4.269239         0.058972
 O         0.880277         4.319641         0.838022
 C         1.042192         2.951045         1.236189
 C        -0.346476         2.282831         1.538414
 H         1.001245         0.431412        -0.068451
 H        -2.477052         0.061448        -0.057356
 H        -2.664873         1.130284         1.447724
 H        -1.440532         2.259786        -1.331012
 H        -2.246345         3.807176         1.013651
 H        -0.172504         4.053575        -1.057063
 H        -0.675075         5.223921         0.207097
 H         1.482130         2.348091         0.453838
 H         1.591828         2.995654         2.115934
 H        -0.493913         2.219488         2.628663
