19
Iteration:   244charge 0 multiplicity 1
 O         0.255660         0.287157         0.082540
 C        -0.562367         1.278122         0.539648
 C        -2.077809         0.946187         0.649682
 C        -1.747692         2.100503        -0.188264
 C        -1.379671         3.214410         0.855958
 C        -0.420892         4.291396         0.112518
 O         0.980782         3.829383         0.331353
 C         1.029716         3.111959         1.597118
 C        -0.358871         2.344727         1.594135
 H         0.383382        -0.351750         0.771008
 H        -2.376371        -0.026971         0.240813
 H        -2.518012         1.176068         1.688888
 H        -1.742620         2.189759        -1.239639
 H        -2.036382         3.748705         1.523195
 H        -0.549080         4.303355        -1.010782
 H        -0.537672         5.311560         0.536031
 H         1.834767         2.318095         1.392010
 H         1.194103         3.772443         2.438566
 H        -0.613871         2.020743         2.587419
