19
Iteration:  3298
 O         0.415889         0.396690         0.423544
 C        -0.713972         1.220493         0.587454
 C        -2.183946         0.859862         0.486312
 C        -1.626087         2.042322        -0.320708
 C        -1.364830         3.272684         0.723522
 C        -0.335610         4.373221         0.350450
 O         1.025192         3.862368         0.306484
 C         0.953916         2.942177         1.498300
 C        -0.507156         2.316074         1.530156
 H         0.726218         0.468010        -0.547019
 H        -2.334812        -0.095105        -0.010911
 H        -2.700964         1.053189         1.430032
 H        -1.595754         1.906929        -1.410971
 H        -2.276660         3.849451         0.981854
 H        -0.545767         4.932408        -0.535952
 H        -0.612488         5.140734         1.123413
 H         1.719637         2.260716         1.502758
 H         1.221661         3.507178         2.425293
 H        -0.711769         2.280066         2.588964
