19
Iteration:  3816
 O         0.185978        -0.019234         0.314960
 C        -0.665215         1.090664         0.616075
 C        -2.249826         0.996433         0.471873
 C        -1.532559         2.110470        -0.295283
 C        -1.209326         3.229635         0.618737
 C        -0.308232         4.226321         0.023910
 O         0.795386         4.347387         0.905424
 C         1.072542         3.030474         1.450156
 C        -0.261263         2.328090         1.496346
 H         0.169647        -0.204050        -0.573345
 H        -2.556767         0.090055        -0.070939
 H        -2.915982         1.180526         1.358097
 H        -1.599646         2.355624        -1.370839
 H        -2.134058         3.873899         1.058847
 H         0.102678         3.966448        -0.896032
 H        -0.922035         5.202030         0.038262
 H         1.782628         2.453377         0.769644
 H         1.373850         3.096288         2.492904
 H        -0.547100         2.368289         2.601582
