19
Iteration:  2817
 O         0.383692         0.321845         0.243419
 C        -0.702109         1.194584         0.697194
 C        -2.078858         0.839399         0.517380
 C        -1.658219         2.146855        -0.200290
 C        -1.324048         3.296622         0.765086
 C        -0.390503         4.359852         0.187516
 O         0.948712         3.884063         0.338060
 C         1.000509         2.916686         1.396839
 C        -0.481824         2.426357         1.647403
 H         0.361510        -0.450446         0.951719
 H        -2.256617         0.148680        -0.310440
 H        -2.813640         0.792619         1.282346
 H        -1.693878         2.278527        -1.266851
 H        -2.171546         3.773157         1.306772
 H        -0.494386         4.693141        -0.794349
 H        -0.423998         5.297083         0.835900
 H         1.728207         2.089249         0.964091
 H         1.372890         3.422439         2.375405
 H        -0.693808         2.273397         2.706196
