19
Iteration:  4683charge 0 multiplicity 1
 O         0.208332         0.027779         0.340698
 C        -0.661890         1.112204         0.593728
 C        -2.163735         0.937484         0.616151
 C        -1.528676         2.028639        -0.288705
 C        -1.302811         3.193883         0.599656
 C        -0.268764         4.300148         0.031081
 O         0.812572         4.381938         0.970373
 C         1.070373         3.042229         1.290927
 C        -0.338524         2.335036         1.474778
 H        -0.170512        -0.511001        -0.456627
 H        -2.810527         0.174745         0.031723
 H        -2.752271         1.336392         1.512900
 H        -1.623196         2.108698        -1.401106
 H        -2.246335         3.687475         0.983584
 H         0.028699         4.066458        -1.020405
 H        -0.744746         5.298607        -0.136816
 H         1.728708         2.586549         0.488045
 H         1.611237         2.955085         2.173278
 H        -0.417053         2.129140         2.559099
