19
Iteration:  1019charge 0 multiplicity 1
 O         0.195657         0.316395         0.120501
 C        -0.663282         1.212827         0.611075
 C        -2.182705         0.858094         0.612932
 C        -1.678432         1.962030        -0.184159
 C        -1.319482         3.213395         0.743523
 C        -0.375654         4.362411         0.252213
 O         1.038684         3.904903         0.290449
 C         1.027404         3.145255         1.526657
 C        -0.288749         2.398014         1.562709
 H         0.365592        -0.400693         0.781974
 H        -2.217464         0.035468        -0.096340
 H        -2.926906         0.920296         1.509757
 H        -1.861060         2.116146        -1.234391
 H        -2.154174         3.631379         1.300007
 H        -0.576995         4.753879        -0.720976
 H        -0.437706         5.148764         1.001665
 H         1.977173         2.413369         1.670413
 H         1.022745         3.649948         2.491332
 H        -0.556752         2.142568         2.697902
