19
Iteration:  4069charge 0 multiplicity 1
 O         0.263996         0.153597         0.303958
 C        -0.702103         1.094241         0.543201
 C        -2.195578         0.920016         0.593038
 C        -1.613219         2.040235        -0.286585
 C        -1.263229         3.273461         0.554605
 C        -0.203088         4.243956         0.031966
 O         0.857061         4.384818         0.950955
 C         1.038401         2.971335         1.422572
 C        -0.371931         2.327896         1.416756
 H        -0.233767        -0.766260         0.304363
 H        -2.516875         0.119433        -0.013411
 H        -2.826450         1.157670         1.394478
 H        -1.831197         2.023759        -1.363135
 H        -2.123559         3.649886         1.052133
 H         0.075346         3.810871        -0.934877
 H        -0.712413         5.271143         0.073470
 H         1.783438         2.374702         0.779437
 H         1.431835         3.124615         2.380795
 H        -0.641279         1.958653         2.453081
