19
Iteration:  2391
 O         0.321005         0.185682         0.300798
 C        -0.693639         1.219441         0.558444
 C        -2.100757         0.923223         0.573405
 C        -1.637307         2.181300        -0.195193
 C        -1.319327         3.253776         0.735458
 C        -0.400545         4.366337         0.218239
 O         0.951391         3.834944         0.283619
 C         0.955279         3.101537         1.500998
 C        -0.308250         2.300107         1.667500
 H         0.521811        -0.174229        -0.510287
 H        -2.444795         0.118645        -0.124041
 H        -2.714485         0.990227         1.438030
 H        -1.817132         2.431335        -1.251916
 H        -2.215022         3.796467         1.326359
 H        -0.642567         4.632079        -0.781742
 H        -0.551674         5.244286         0.854360
 H         1.879444         2.370198         1.566301
 H         1.023421         3.889552         2.261836
 H        -0.726845         1.989815         2.656596
