19
Iteration:  2708charge 0 multiplicity 1
 O         0.301509         0.238902         0.200717
 C        -0.649650         1.133392         0.685964
 C        -2.182637         0.950726         0.519920
 C        -1.600163         2.076060        -0.181090
 C        -1.352079         3.274443         0.771763
 C        -0.397211         4.352330         0.182256
 O         0.903869         3.842471         0.257720
 C         1.030579         3.098316         1.482860
 C        -0.372219         2.342067         1.682188
 H         1.036297         0.513686         0.779983
 H        -2.406126        -0.019453         0.074548
 H        -2.753695         1.283822         1.368853
 H        -1.556258         2.317424        -1.262503
 H        -2.324547         3.666987         1.349210
 H        -0.558069         4.423008        -0.853826
 H        -0.526354         5.347142         0.703048
 H         1.852642         2.561511         1.273563
 H         1.476890         3.637665         2.320874
 H        -0.640416         2.003036         2.668479
