19
Iteration:  1886charge 0 multiplicity 1
 O         0.343617         0.390938         0.111497
 C        -0.650272         1.178564         0.667817
 C        -2.126465         1.045894         0.685268
 C        -1.515099         2.086349        -0.252293
 C        -1.362303         3.254344         0.751646
 C        -0.388371         4.298392         0.257505
 O         0.927663         3.728023         0.310337
 C         0.927299         3.033813         1.465679
 C        -0.382110         2.357491         1.619697
 H         0.049088        -0.512063         0.588048
 H        -2.506478         0.285462         0.058281
 H        -2.824440         1.307153         1.495313
 H        -1.468815         1.966439        -1.335999
 H        -2.331132         3.735998         1.119666
 H        -0.570677         4.602688        -0.787598
 H        -0.404120         5.293295         0.761645
 H         1.915670         2.288061         1.295616
 H         1.068197         3.681936         2.443431
 H        -0.683550         2.161367         2.751666
