19
Iteration:  1063charge 0 multiplicity 1
 O         0.364187         0.369402         0.058853
 C        -0.654266         1.226216         0.646593
 C        -2.111249         0.972220         0.698093
 C        -1.584230         2.129412        -0.147669
 C        -1.321140         3.295971         0.737187
 C        -0.473041         4.348221         0.130314
 O         0.965444         3.810947         0.371416
 C         0.971907         2.940594         1.482438
 C        -0.394766         2.343118         1.619677
 H         0.390145        -0.508760         0.604967
 H        -2.440042         0.059461         0.168748
 H        -2.667352         1.267349         1.657646
 H        -1.913250         2.124838        -1.154018
 H        -2.257279         3.488447         1.250050
 H        -0.582601         4.479287        -0.925433
 H        -0.624517         5.320891         0.610227
 H         1.780535         2.063425         1.377023
 H         1.371776         3.467660         2.353773
 H        -0.912129         2.062550         2.655017
