19
Iteration:  4640charge 0 multiplicity 1
 O         0.229847         0.129070         0.315669
 C        -0.727715         1.122646         0.581782
 C        -2.184998         0.867509         0.619801
 C        -1.552925         1.944339        -0.325248
 C        -1.305860         3.241897         0.513028
 C        -0.326506         4.362954         0.141442
 O         0.871690         4.345563         0.970192
 C         1.082264         2.967269         1.273827
 C        -0.304894         2.343313         1.443983
 H        -0.026145        -0.676057         0.864623
 H        -2.621724         0.015939         0.013810
 H        -2.929985         1.404554         1.228133
 H        -1.660736         1.889669        -1.436160
 H        -2.176527         3.724219         1.102817
 H         0.088359         4.312378        -0.900048
 H        -0.613342         5.430412         0.112345
 H         1.682702         2.447052         0.400367
 H         1.691176         3.089190         2.124064
 H        -0.601045         2.352316         2.446106
