19
Iteration:  2856
 O         0.299881         0.221816         0.183074
 C        -0.627703         1.219799         0.639625
 C        -2.157903         1.034992         0.510241
 C        -1.545654         2.110936        -0.269516
 C        -1.300223         3.186767         0.709123
 C        -0.437953         4.309913         0.344606
 O         0.912780         3.722088         0.266202
 C         1.000731         3.147630         1.503120
 C        -0.376709         2.383110         1.669912
 H         1.081969         0.067997         0.770999
 H        -2.651853         0.161330        -0.002827
 H        -2.880331         1.316941         1.356784
 H        -1.561067         2.094429        -1.380219
 H        -2.225166         3.624095         1.215745
 H        -0.812223         4.749989        -0.688961
 H        -0.631958         5.101467         1.100235
 H         1.901730         2.506321         1.565136
 H         0.998070         4.030335         2.315701
 H        -0.663460         2.288174         2.752978
