19
Iteration:   876
 O         0.242335         0.217373         0.195683
 C        -0.637146         1.172992         0.711283
 C        -2.163217         0.949972         0.566028
 C        -1.505244         2.032336        -0.240180
 C        -1.321408         3.240771         0.819614
 C        -0.475065         4.416614         0.232559
 O         0.918069         3.946185         0.253901
 C         1.050805         3.071804         1.439719
 C        -0.288807         2.321388         1.695507
 H        -0.223091        -0.680353         0.129122
 H        -2.549869         0.122008        -0.122941
 H        -2.997414         1.351471         1.221037
 H        -1.385105         2.145359        -1.330662
 H        -2.246599         3.456903         1.276371
 H        -0.798238         4.637466        -0.788975
 H        -0.544895         5.433470         0.775467
 H         2.062753         2.466460         1.369673
 H         1.287352         3.693650         2.327107
 H        -0.474833         2.059519         2.745288
