19
Iteration:  4796charge 0 multiplicity 1
 O         0.314669         0.246111         0.279787
 C        -0.693043         1.130658         0.588883
 C        -2.184548         0.901382         0.521419
 C        -1.637242         2.055067        -0.237764
 C        -1.243574         3.227671         0.642769
 C        -0.309911         4.288653         0.073631
 O         0.952103         4.221370         0.672501
 C         0.946300         3.035637         1.486735
 C        -0.398627         2.279564         1.549715
 H        -0.192770        -0.539256        -0.075473
 H        -2.348835        -0.013691        -0.027558
 H        -2.569378         0.994959         1.579088
 H        -1.702343         2.135705        -1.309412
 H        -2.122464         3.807535         1.151305
 H        -0.183253         4.118993        -1.050923
 H        -0.786526         5.289688         0.280365
 H         1.720357         2.300086         1.155446
 H         1.411866         3.172847         2.496539
 H        -0.633413         2.017659         2.561945
