19
Iteration:    25
 O         0.241739         0.223606         0.149311
 C        -0.732397         1.111236         0.756924
 C        -2.135236         0.695421         0.583875
 C        -1.464984         2.056781        -0.107622
 C        -1.310259         3.377172         0.745864
 C        -0.386363         4.521700         0.252430
 O         0.958897         4.009305         0.267594
 C         1.007906         2.954525         1.332941
 C        -0.416546         2.430967         1.674203
 H         0.296610        -0.521243         0.754338
 H        -2.364652         0.009312        -0.209780
 H        -2.954574         0.755269         1.341742
 H        -1.557886         1.961543        -1.184179
 H        -2.171252         3.727266         1.193835
 H        -0.689928         4.937391        -0.780110
 H        -0.477772         5.412585         0.851194
 H         1.785181         2.239610         0.938727
 H         1.460941         3.338445         2.262682
 H        -0.669852         2.416935         2.783930
