19
Iteration:  2533
 O         0.300751         0.284790         0.193999
 C        -0.593063         1.221695         0.715218
 C        -2.161221         1.019133         0.619055
 C        -1.481627         2.051932        -0.263376
 C        -1.356512         3.246503         0.697098
 C        -0.426695         4.326016         0.270388
 O         0.907254         3.802321         0.267507
 C         0.930660         2.997113         1.502655
 C        -0.383550         2.383557         1.648720
 H         0.927980         0.718938        -0.434128
 H        -2.513240         0.064396         0.266127
 H        -2.791318         1.132714         1.492224
 H        -1.684321         1.895819        -1.312860
 H        -2.166417         3.527089         1.197603
 H        -0.550347         4.725096        -0.691860
 H        -0.439252         5.238900         0.958073
 H         1.578062         2.040622         1.297954
 H         1.193909         3.637994         2.319632
 H        -0.608547         2.440356         2.733832
