19
Iteration:  4491
 O         0.237075         0.155154         0.268489
 C        -0.741668         1.121267         0.678716
 C        -2.227431         0.946114         0.434543
 C        -1.535513         2.026743        -0.252148
 C        -1.260101         3.232367         0.717811
 C        -0.256636         4.209152         0.029946
 O         0.858481         4.360198         0.839523
 C         1.051063         3.007707         1.384775
 C        -0.388706         2.329887         1.587623
 H         0.114086        -0.057631        -0.624052
 H        -2.202885        -0.001576        -0.103561
 H        -2.917563         0.893116         1.177678
 H        -1.614001         2.048503        -1.369142
 H        -2.156385         3.537049         1.134599
 H         0.125589         3.620368        -0.882549
 H        -0.652862         5.188172        -0.264657
 H         1.773462         2.533986         0.681313
 H         1.656588         3.068755         2.376279
 H        -0.741271         2.234840         2.689338
