19
Iteration:  1695
 O         0.329692         0.325070         0.179684
 C        -0.713887         1.171997         0.732195
 C        -2.186825         0.871313         0.545868
 C        -1.493237         2.003008        -0.214158
 C        -1.315536         3.338412         0.730600
 C        -0.338271         4.412093         0.324463
 O         0.910697         3.828914         0.244402
 C         1.011374         3.020110         1.412967
 C        -0.433656         2.385274         1.680624
 H        -0.047521        -0.545107         0.242952
 H        -2.443738         0.012648        -0.074691
 H        -2.923626         1.245823         1.353174
 H        -1.334644         2.253988        -1.275187
 H        -2.233570         3.681886         1.161708
 H        -0.475738         5.006854        -0.615178
 H        -0.399208         5.109177         1.137724
 H         1.631146         2.190428         1.216373
 H         1.323140         3.638043         2.257372
 H        -0.687226         2.287933         2.744644
