19
Iteration:  2911charge 0 multiplicity 1
 O         0.314580         0.209629         0.367371
 C        -0.704997         1.194814         0.607715
 C        -2.190760         0.862404         0.468367
 C        -1.612444         2.147164        -0.211189
 C        -1.368603         3.212621         0.778632
 C        -0.351154         4.378152         0.178931
 O         1.013066         3.946214         0.352833
 C         1.041479         3.006196         1.510133
 C        -0.423941         2.365786         1.605594
 H         0.836315         0.331245        -0.379775
 H        -2.195615        -0.006407        -0.261246
 H        -3.072052         0.969589         1.211918
 H        -1.965368         2.245859        -1.223494
 H        -2.279956         3.694580         1.334100
 H        -0.582910         4.698287        -0.943321
 H        -0.732194         5.197311         0.853029
 H         1.853230         2.352492         1.179580
 H         1.490883         3.726395         2.301487
 H        -0.655591         2.060707         2.645708
