19
Iteration:   710
 O         0.352327         0.376475         0.250327
 C        -0.671022         1.237798         0.561848
 C        -2.206405         0.905582         0.599329
 C        -1.582479         2.112993        -0.178198
 C        -1.332186         3.257430         0.801443
 C        -0.396941         4.362178         0.260512
 O         0.932285         3.819820         0.251961
 C         0.983973         3.002422         1.393227
 C        -0.343560         2.256810         1.620035
 H         0.307666        -0.412832         0.760502
 H        -2.556505         0.061981         0.071860
 H        -2.836639         1.299401         1.416207
 H        -1.685071         2.277752        -1.283034
 H        -2.087668         3.743983         1.353327
 H        -0.663750         4.771251        -0.734321
 H        -0.379892         5.184162         0.995270
 H         1.943079         2.381511         1.273847
 H         1.092692         3.700831         2.262076
 H        -0.490493         2.000313         2.631230
