19
Iteration:  4330charge 0 multiplicity 1
 O         0.237473         0.143383         0.263301
 C        -0.658314         1.145468         0.634628
 C        -2.157928         0.981536         0.548265
 C        -1.537339         1.919407        -0.326476
 C        -1.290813         3.226005         0.453277
 C        -0.208572         4.405636         0.138971
 O         0.859218         4.330912         1.035616
 C         1.001236         2.873840         1.262380
 C        -0.448634         2.337227         1.487860
 H         0.282598        -0.483645         0.975211
 H        -2.443536        -0.069846         0.122538
 H        -2.851068         1.331977         1.478366
 H        -1.662197         1.705883        -1.411233
 H        -2.196614         3.685901         1.073608
 H         0.292102         4.548140        -0.902123
 H        -0.849836         5.323862         0.313289
 H         1.243537         2.452070         0.266235
 H         1.797629         2.623047         1.997309
 H        -0.944482         2.410644         2.427963
