19
Iteration:  2885
 O         0.182920         0.162285         0.221999
 C        -0.662544         1.179238         0.664185
 C        -2.031896         0.885595         0.543772
 C        -1.500095         2.176126        -0.235658
 C        -1.329254         3.304864         0.742535
 C        -0.396733         4.432866         0.256827
 O         0.904642         3.797215         0.325998
 C         0.957315         3.076730         1.491204
 C        -0.397310         2.322748         1.602587
 H         1.078634         0.299540         0.279846
 H        -2.356206         0.032809        -0.007085
 H        -2.705507         1.123411         1.337067
 H        -1.252896         2.048035        -1.303025
 H        -2.274727         3.734886         1.245883
 H        -0.600371         4.667114        -0.796214
 H        -0.616577         5.358231         0.841594
 H         1.895210         2.588037         1.428034
 H         0.962749         3.868903         2.249195
 H        -0.600476         2.151052         2.659647
