19
Iteration:  1361
 O         0.408567         0.329648         0.242666
 C        -0.699395         1.238273         0.608208
 C        -2.123436         0.806832         0.531654
 C        -1.719055         2.150969        -0.118553
 C        -1.358223         3.336772         0.834875
 C        -0.349553         4.423414         0.234282
 O         1.008942         3.752095         0.160248
 C         0.923955         2.994465         1.494448
 C        -0.393644         2.367358         1.603787
 H         0.342464        -0.329908         0.877322
 H        -2.261987         0.133371        -0.351143
 H        -2.876475         0.684524         1.270054
 H        -1.831958         2.149423        -1.175806
 H        -2.122921         3.805442         1.440156
 H        -0.667266         4.863981        -0.651232
 H        -0.216540         5.216251         1.062130
 H         1.762124         2.313118         1.525995
 H         1.228945         3.682825         2.263419
 H        -0.788042         2.128566         2.508334
