19
Iteration:  4692charge 0 multiplicity 1
 O         0.213586         0.052523         0.364678
 C        -0.703483         1.122130         0.582705
 C        -2.216086         0.987377         0.530430
 C        -1.569000         2.003267        -0.281612
 C        -1.291693         3.259932         0.642290
 C        -0.290947         4.255951         0.017079
 O         0.793529         4.411189         0.954317
 C         1.093021         3.000599         1.285777
 C        -0.282244         2.265504         1.499786
 H        -0.112553        -0.388165        -0.520811
 H        -2.331961        -0.094943         0.093534
 H        -2.683933         1.107009         1.514409
 H        -1.594617         1.952198        -1.406186
 H        -2.084848         3.780636         1.136526
 H         0.182211         3.873371        -0.902500
 H        -0.628380         5.278700        -0.103389
 H         1.650794         2.645603         0.481249
 H         1.662775         3.161741         2.154697
 H        -0.445286         2.312668         2.650830
