19
Iteration:  3622charge 0 multiplicity 1
 O         0.141023         0.038083         0.325299
 C        -0.684437         1.144562         0.611855
 C        -2.145842         0.905262         0.613280
 C        -1.557228         1.989924        -0.277029
 C        -1.310569         3.257154         0.543143
 C        -0.304302         4.343991         0.078747
 O         0.875605         4.299044         0.910003
 C         0.994653         2.982893         1.313989
 C        -0.326694         2.374659         1.476431
 H         1.101355         0.379933         0.126258
 H        -2.420303        -0.008421         0.155772
 H        -2.642305         1.251309         1.483285
 H        -1.578144         1.876272        -1.367415
 H        -2.145965         3.759648         0.987154
 H         0.072953         4.216025        -0.927058
 H        -0.585301         5.420470         0.084146
 H         1.438961         2.530190         0.455506
 H         1.885872         2.712455         1.981792
 H        -0.782325         2.264730         2.446926
