19
Iteration:   882
 O         0.259890         0.203111         0.236146
 C        -0.653703         1.190373         0.684032
 C        -2.139664         0.975571         0.550392
 C        -1.486721         2.083379        -0.257725
 C        -1.371501         3.238388         0.833287
 C        -0.501835         4.364866         0.238251
 O         0.902049         3.944784         0.252802
 C         1.082043         3.046958         1.447264
 C        -0.296421         2.325159         1.666582
 H        -0.208645        -0.716490         0.157718
 H        -2.512876         0.173933        -0.026528
 H        -2.784465         1.350085         1.292154
 H        -1.428236         2.367852        -1.293662
 H        -2.394515         3.441452         1.346866
 H        -0.632343         4.612661        -0.849413
 H        -0.499476         5.280399         0.758434
 H         1.887492         2.452748         1.232101
 H         1.356053         3.701105         2.311939
 H        -0.346975         2.046618         2.791192
