19
Iteration:  3971
 O         0.184570         0.095583         0.296899
 C        -0.676784         1.123310         0.594240
 C        -2.187491         0.974938         0.579221
 C        -1.436651         2.009555        -0.409476
 C        -1.235373         3.236348         0.513823
 C        -0.380109         4.446588         0.196973
 O         0.822386         4.231196         0.816266
 C         1.082325         2.908741         1.431572
 C        -0.375695         2.327498         1.441735
 H         0.578625        -0.322900         1.190164
 H        -2.563924         0.082138         0.158731
 H        -2.786453         1.457247         1.281502
 H        -1.574989         1.882586        -1.505013
 H        -2.215860         3.576696         1.063196
 H        -0.207847         4.550023        -0.928096
 H        -0.730512         5.508295         0.505334
 H         1.700512         2.239833         0.893184
 H         1.594248         2.936916         2.365722
 H        -0.780718         2.316049         2.487271
