19
Iteration:  4856charge 0 multiplicity 1
 O         0.290597         0.269396         0.197398
 C        -0.683802         1.119814         0.696013
 C        -2.248493         0.879766         0.479330
 C        -1.512464         1.961457        -0.244117
 C        -1.321521         3.256006         0.639753
 C        -0.402419         4.430092         0.127489
 O         0.983954         4.111756         0.609774
 C         1.043985         2.982280         1.503190
 C        -0.392675         2.339570         1.527699
 H         0.617348        -0.252553         0.896761
 H        -2.520982         0.002229        -0.059133
 H        -2.840137         1.075393         1.386119
 H        -1.684929         1.980067        -1.316937
 H        -2.257094         3.615501         1.004438
 H        -0.365499         4.519820        -1.008707
 H        -0.672365         5.355209         0.620002
 H         1.742129         2.220670         1.086875
 H         1.146669         3.334805         2.614749
 H        -0.734163         2.203700         2.601737
