19
Iteration:  4722
 O         0.256878         0.204576         0.370251
 C        -0.726129         1.128348         0.625082
 C        -2.213393         0.908911         0.473038
 C        -1.617833         2.044570        -0.205804
 C        -1.328074         3.241514         0.668448
 C        -0.256780         4.170075        -0.022201
 O         0.832145         4.327895         0.919998
 C         1.084367         2.989592         1.232797
 C        -0.324735         2.322176         1.554227
 H         0.181038        -0.052153        -0.512213
 H        -2.386990         0.103436        -0.206535
 H        -2.667297         0.976104         1.398795
 H        -1.656947         2.092660        -1.302717
 H        -2.170662         3.807829         1.066255
 H         0.226204         3.737016        -0.934385
 H        -0.652422         5.146958         0.052575
 H         1.767058         2.456332         0.455191
 H         1.671845         3.026514         2.273327
 H        -0.542320         2.310042         2.678938
