19
Iteration:  3243
 O         0.253955         0.217490         0.282050
 C        -0.656678         1.222532         0.601685
 C        -2.069216         0.951994         0.448597
 C        -1.408946         2.173799        -0.243176
 C        -1.359833         3.204757         0.786022
 C        -0.435443         4.332331         0.173593
 O         0.932266         3.883827         0.402698
 C         0.913291         3.134931         1.566435
 C        -0.341443         2.250405         1.636588
 H        -0.251895        -0.405079        -0.164747
 H        -2.251956         0.268703        -0.366282
 H        -2.848725         1.149389         1.206179
 H        -1.415497         2.393163        -1.289034
 H        -2.425369         3.517170         1.159426
 H        -0.422836         4.223732        -0.885346
 H        -0.692298         5.315778         0.589276
 H         1.714542         2.499286         1.462749
 H         1.059165         3.813065         2.503587
 H        -0.528161         2.125708         2.688921
