19
Iteration:  3858charge 0 multiplicity 1
 O         0.281839         0.208058         0.366061
 C        -0.755034         1.133507         0.663813
 C        -2.209999         0.897741         0.597443
 C        -1.556724         2.016541        -0.357408
 C        -1.213211         3.257563         0.437710
 C        -0.213440         4.304239         0.058498
 O         0.822739         4.268240         1.114124
 C         1.038864         2.880206         1.210414
 C        -0.413212         2.413162         1.449967
 H        -0.080954        -0.219366        -0.416012
 H        -2.328925        -0.160243         0.226720
 H        -2.887417         1.240202         1.527908
 H        -1.865653         1.856068        -1.376901
 H        -2.104511         3.800534         0.976846
 H         0.121839         4.142866        -1.028632
 H        -0.616396         5.339546         0.265801
 H         1.618592         2.351307         0.359046
 H         1.718183         2.692715         2.066573
 H        -0.765000         2.287695         2.512480
