19
Iteration:  4565charge 0 multiplicity 1
 O         0.217172         0.117752         0.332450
 C        -0.734096         1.132138         0.629769
 C        -2.163828         0.891000         0.545608
 C        -1.601206         2.000311        -0.356478
 C        -1.228569         3.281013         0.580533
 C        -0.339083         4.388719         0.104877
 O         0.887217         4.266157         0.826527
 C         1.038546         2.930585         1.369437
 C        -0.364782         2.333450         1.512514
 H         1.088508         0.378772         0.648276
 H        -2.387244        -0.041495        -0.070684
 H        -2.890763         0.986335         1.345650
 H        -1.848293         1.867711        -1.451675
 H        -2.124151         3.773670         1.087385
 H        -0.130590         4.423756        -0.966280
 H        -0.634909         5.451956         0.378396
 H         1.634476         2.305830         0.671653
 H         1.717060         2.965814         2.206999
 H        -0.774093         2.038983         2.480221
