19
Iteration:  2033charge 0 multiplicity 1
 O         0.260778         0.212128         0.290449
 C        -0.654593         1.191212         0.586608
 C        -2.165621         0.997141         0.548748
 C        -1.554987         2.081801        -0.250762
 C        -1.261213         3.212646         0.791900
 C        -0.425844         4.327420         0.221404
 O         0.935402         3.992375         0.369644
 C         1.027863         3.013887         1.421960
 C        -0.343545         2.327851         1.556328
 H         0.049223        -0.564218         0.794881
 H        -2.506065         0.102647         0.002368
 H        -2.703387         1.374031         1.426305
 H        -1.776922         2.325517        -1.281668
 H        -2.202803         3.393318         1.267193
 H        -0.674173         4.482942        -0.833535
 H        -0.647684         5.294907         0.764833
 H         1.873131         2.426975         1.287757
 H         1.237868         3.564687         2.384470
 H        -0.635872         2.277726         2.598306
