19
Iteration:   204
 O         0.328014         0.521726         0.031138
 C        -0.698175         1.149556         0.730413
 C        -2.168598         0.777175         0.640973
 C        -1.657622         2.010555        -0.081332
 C        -1.324335         3.346217         0.768447
 C        -0.304946         4.363862         0.178363
 O         0.953547         3.742050         0.195115
 C         0.973240         3.044368         1.543083
 C        -0.380656         2.391912         1.649610
 H         0.390551        -0.422446         0.358222
 H        -2.433054        -0.107462         0.114270
 H        -2.812266         1.040190         1.504615
 H        -1.452534         1.961740        -1.115526
 H        -2.148772         3.769516         1.336089
 H        -0.487095         4.650728        -0.910339
 H        -0.339367         5.247265         0.842337
 H         1.826564         2.365989         1.515531
 H         1.162288         3.798602         2.379357
 H        -0.865835         2.247572         2.678834
