19
Iteration:  2570charge 0 multiplicity 1
 O         0.279692         0.266828         0.339126
 C        -0.728009         1.182667         0.580102
 C        -2.106936         0.801037         0.542880
 C        -1.682872         2.113309        -0.139714
 C        -1.307168         3.321172         0.762414
 C        -0.319145         4.414253         0.198053
 O         0.987961         3.864069         0.277128
 C         0.914942         3.002021         1.493154
 C        -0.368207         2.385141         1.537061
 H         0.987250         0.685364        -0.067163
 H        -2.079930         0.005960        -0.227820
 H        -2.576202         0.692635         1.505707
 H        -2.134203         2.032150        -1.174429
 H        -2.050232         3.772947         1.585566
 H        -0.590971         4.588888        -0.916816
 H        -0.497380         5.303038         0.820291
 H         1.844738         2.344733         1.381255
 H         1.192420         3.512679         2.426119
 H        -0.601674         2.102480         2.609111
