19
Iteration:  1010charge 0 multiplicity 1
 O         0.221087         0.252789         0.180687
 C        -0.701468         1.246749         0.596968
 C        -2.162188         0.807627         0.538249
 C        -1.702709         2.060499        -0.172080
 C        -1.356129         3.279124         0.805443
 C        -0.308587         4.321451         0.278426
 O         0.970243         3.915919         0.291589
 C         1.022790         3.143935         1.495772
 C        -0.223288         2.337355         1.552555
 H         0.369018        -0.330671         0.980474
 H        -2.433000         0.085715        -0.231606
 H        -2.957232         0.760685         1.336697
 H        -1.758488         2.088831        -1.222103
 H        -2.148229         3.511184         1.426982
 H        -0.499840         4.629699        -0.736064
 H        -0.386091         5.263972         0.830256
 H         2.065706         2.623351         1.499837
 H         0.981826         3.932907         2.292356
 H        -0.504231         2.147432         2.604000
