19
Iteration:  1274
 O         0.257745         0.302084         0.215894
 C        -0.673361         1.314780         0.572914
 C        -2.113234         0.785946         0.560820
 C        -1.725769         2.051732        -0.245641
 C        -1.332708         3.276406         0.787246
 C        -0.303831         4.335994         0.291121
 O         1.010497         3.869232         0.244402
 C         0.971584         3.076002         1.441761
 C        -0.358699         2.393666         1.655377
 H         0.212893        -0.333592         0.948485
 H        -2.070462        -0.199502         0.135552
 H        -2.665925         0.880222         1.474592
 H        -1.946815         2.238595        -1.308394
 H        -2.187980         3.653826         1.234055
 H        -0.512601         4.763604        -0.664613
 H        -0.276567         5.096631         1.086399
 H         1.738558         2.290939         1.421182
 H         1.196852         3.701246         2.343371
 H        -0.734859         2.129459         2.678506
