19
Iteration:    29
 O         0.217486         0.236660         0.167686
 C        -0.692046         1.130229         0.755760
 C        -2.118263         0.717545         0.563677
 C        -1.485066         2.009986        -0.105606
 C        -1.301348         3.341555         0.750235
 C        -0.353847         4.501627         0.263374
 O         0.937365         4.020399         0.294505
 C         1.008225         2.973234         1.290470
 C        -0.414339         2.429108         1.662552
 H         0.297249        -0.557894         0.764124
 H        -2.397134        -0.056995        -0.194888
 H        -2.971202         0.956910         1.229105
 H        -1.708345         1.929382        -1.189146
 H        -2.240178         3.781461         1.246664
 H        -0.647252         4.946890        -0.709664
 H        -0.512342         5.481580         0.800233
 H         1.767515         2.194939         0.987567
 H         1.499273         3.295690         2.250324
 H        -0.671539         2.452343         2.742179
