19
Iteration:  1818charge 0 multiplicity 1
 O         0.301396         0.210575         0.213626
 C        -0.670725         1.195406         0.541309
 C        -2.210112         0.907910         0.622547
 C        -1.642926         2.117322        -0.217849
 C        -1.280533         3.273690         0.706091
 C        -0.364278         4.421312         0.225273
 O         0.965706         3.953856         0.369136
 C         1.035052         3.033579         1.463271
 C        -0.371984         2.285044         1.599983
 H         0.475953        -0.334415         0.945319
 H        -2.630819         0.086649         0.006591
 H        -2.759868         1.041482         1.510274
 H        -1.909134         2.039324        -1.276419
 H        -2.127933         3.667886         1.193813
 H        -0.571154         4.644072        -0.784589
 H        -0.502955         5.355667         0.801585
 H         1.767503         2.218007         1.367340
 H         1.235301         3.581337         2.434043
 H        -0.569282         2.033849         2.672579
