19
Iteration:   608
 O         0.251321         0.077986         0.346628
 C        -0.647440         1.168094         0.653752
 C        -2.063314         0.885033         0.526243
 C        -1.542772         2.141135        -0.167314
 C        -1.285960         3.314039         0.753091
 C        -0.399171         4.476142         0.349614
 O         0.894305         3.960360         0.231750
 C         0.984173         2.995204         1.312080
 C        -0.340659         2.366599         1.541859
 H        -0.212476        -0.778970         0.387945
 H        -2.207956        -0.043902        -0.022806
 H        -2.779064         0.993383         1.287057
 H        -1.918327         2.372078        -1.142484
 H        -2.195708         3.763653         1.250447
 H        -0.820414         5.150562        -0.479976
 H        -0.395082         5.131360         1.218475
 H         1.851335         2.469111         1.181236
 H         1.060367         3.666812         2.257648
 H        -0.553524         2.276739         2.660603
