19
Iteration:  1960charge 0 multiplicity 1
 O         0.350875         0.387305         0.230921
 C        -0.660277         1.219148         0.734482
 C        -2.212649         1.013339         0.487753
 C        -1.453239         2.089134        -0.255711
 C        -1.328234         3.271659         0.785902
 C        -0.459324         4.314379         0.246596
 O         0.844890         3.766538         0.302741
 C         1.042938         2.936271         1.387731
 C        -0.354535         2.405728         1.702667
 H         0.229511        -0.493598         0.742338
 H        -2.570747         0.124639        -0.005189
 H        -2.969765         1.438320         1.189542
 H        -1.310452         2.156812        -1.338788
 H        -2.276384         3.426689         1.287777
 H        -0.628712         4.495565        -0.812015
 H        -0.471649         5.301054         0.753634
 H         1.820141         2.216464         1.252824
 H         1.443077         3.589609         2.130627
 H        -0.680559         2.062925         2.676147
