19
Iteration:   654charge 0 multiplicity 1
 O         0.276792         0.219673         0.270819
 C        -0.704337         1.107566         0.717540
 C        -2.171628         1.023285         0.610539
 C        -1.478032         2.127469        -0.269444
 C        -1.300065         3.192790         0.775317
 C        -0.478116         4.432063         0.311117
 O         0.923281         4.006392         0.305423
 C         1.042634         2.973804         1.306840
 C        -0.340282         2.306206         1.570527
 H         0.223642        -0.570930         0.706496
 H        -2.411099         0.063136         0.145231
 H        -2.947619         1.177065         1.313859
 H        -1.350330         2.205216        -1.419910
 H        -2.149529         3.432724         1.376194
 H        -0.748243         4.684363        -0.763011
 H        -0.605776         5.343182         0.871386
 H         1.707644         2.208526         0.859195
 H         1.415326         3.383149         2.289463
 H        -0.564245         2.276080         2.620292
