19
Iteration:  4280
 O         0.268091         0.128975         0.456325
 C        -0.659442         1.162418         0.599398
 C        -2.193295         0.944613         0.429476
 C        -1.631231         2.115761        -0.390292
 C        -1.210850         3.230971         0.637406
 C        -0.339807         4.251485         0.094422
 O         0.878392         4.294265         0.951263
 C         1.016993         2.967683         1.235268
 C        -0.347954         2.296535         1.542245
 H        -0.168191        -0.690976         0.170755
 H        -2.390654         0.165664        -0.248367
 H        -2.872500         1.061527         1.192684
 H        -1.624114         2.302730        -1.480829
 H        -2.055636         3.668524         1.059354
 H         0.112750         3.942077        -0.844746
 H        -0.925394         5.215194         0.192432
 H         1.479246         2.450020         0.338123
 H         1.564416         2.902123         2.168326
 H        -0.464990         2.364143         2.675961
