19
Iteration:  1742
 O         0.397874         0.239473         0.374811
 C        -0.632718         1.208694         0.593367
 C        -2.199158         0.940259         0.381288
 C        -1.642691         2.215705        -0.201437
 C        -1.328734         3.339084         0.896782
 C        -0.385002         4.447953         0.285290
 O         0.877066         3.782093         0.186557
 C         1.018870         2.995634         1.405716
 C        -0.354201         2.250648         1.647768
 H         0.145622        -0.552377         1.039504
 H        -2.293518         0.173709        -0.381367
 H        -2.830571         0.882919         1.172237
 H        -1.701794         2.457259        -1.316332
 H        -2.214850         3.659463         1.403056
 H        -0.792160         4.723079        -0.637330
 H        -0.174426         5.369031         0.820036
 H         1.724986         2.168839         1.330014
 H         1.172149         3.660180         2.202982
 H        -0.536223         2.108664         2.765264
