19
Iteration:   472charge 0 multiplicity 1
 O         0.314886         0.384273         0.041281
 C        -0.672972         1.147041         0.654381
 C        -2.101820         0.964108         0.658530
 C        -1.522698         2.166827        -0.112376
 C        -1.315288         3.332938         0.771420
 C        -0.435106         4.290428         0.048005
 O         0.894294         3.861998         0.307293
 C         0.997100         2.983370         1.567330
 C        -0.370871         2.255284         1.702067
 H         0.477085        -0.548790         0.500579
 H        -2.582394         0.100013         0.107977
 H        -2.618337         1.077601         1.637925
 H        -1.892651         2.204072        -1.148399
 H        -2.186916         3.760414         1.399390
 H        -0.639622         4.210868        -1.007931
 H        -0.517533         5.334081         0.342925
 H         1.944213         2.362458         1.397796
 H         1.058547         3.673131         2.369635
 H        -0.714521         1.984222         2.832496
