19
Iteration:  4884charge 0 multiplicity 1
 O         0.312128         0.280093         0.212124
 C        -0.679649         1.181014         0.650742
 C        -2.113056         0.920154         0.599137
 C        -1.490798         1.978368        -0.361748
 C        -1.330958         3.216286         0.570904
 C        -0.418441         4.443119         0.272214
 O         1.014412         4.000284         0.493728
 C         0.952579         2.954464         1.505850
 C        -0.499052         2.369656         1.570381
 H         0.707204        -0.101987         1.008444
 H        -2.496212        -0.004770         0.054112
 H        -2.776035         1.337195         1.402719
 H        -1.853633         1.896538        -1.421196
 H        -2.387860         3.650354         0.732518
 H        -0.406563         4.907744        -0.711346
 H        -0.555242         5.089249         1.194158
 H         1.745089         2.213390         1.222137
 H         1.276046         3.325482         2.471581
 H        -0.908424         2.220260         2.550152
