19
Iteration:  3181charge 0 multiplicity 1
 O         0.310500         0.321548         0.231308
 C        -0.678520         1.195600         0.627198
 C        -2.090360         0.899711         0.574938
 C        -1.454484         2.089977        -0.378438
 C        -1.332596         3.257813         0.615862
 C        -0.385577         4.428742         0.359934
 O         0.879208         3.838541         0.432142
 C         0.944832         2.918401         1.462521
 C        -0.457216         2.404383         1.587945
 H         0.750388         0.037519         1.020900
 H        -2.369749        -0.087939         0.237949
 H        -2.799308         1.425274         1.213081
 H        -1.357303         2.187301        -1.450576
 H        -2.373491         3.516898         0.811437
 H        -0.307060         5.035784        -0.553636
 H        -0.517323         5.296795         1.072775
 H         1.703958         1.952180         1.362381
 H         1.305061         3.278033         2.390890
 H        -1.013741         2.233238         2.564934
