19
Iteration:   804
 O         0.381095         0.426060         0.127018
 C        -0.672047         1.189625         0.609489
 C        -2.163452         0.956692         0.642067
 C        -1.608522         2.103905        -0.142687
 C        -1.341512         3.335889         0.782126
 C        -0.454871         4.297149         0.155285
 O         0.981613         3.817406         0.326924
 C         0.989541         2.944261         1.469519
 C        -0.388022         2.264944         1.620957
 H         0.808407         0.068203         1.008298
 H        -2.654620         0.229977        -0.022830
 H        -2.686939         1.207478         1.596256
 H        -1.968171         2.089645        -1.234263
 H        -2.341505         3.667859         1.274423
 H        -0.496316         4.301199        -0.960444
 H        -0.508600         5.311997         0.445384
 H         1.834534         2.288628         1.317300
 H         1.183488         3.541156         2.406856
 H        -0.690876         2.062854         2.747265
