19
Iteration:   981charge 0 multiplicity 1
 O         0.323591         0.195300         0.216826
 C        -0.586462         1.194346         0.645402
 C        -2.113080         1.028722         0.507722
 C        -1.492941         2.197294        -0.164457
 C        -1.316495         3.270879         0.858149
 C        -0.468597         4.364313         0.232076
 O         0.858105         3.875573         0.215300
 C         0.958277         2.949759         1.457483
 C        -0.339117         2.324461         1.661960
 H         0.341352        -0.568438         0.945047
 H        -2.472286         0.327006        -0.264652
 H        -2.779029         1.103422         1.303568
 H        -1.743603         2.349188        -1.228454
 H        -2.283951         3.468178         1.433504
 H        -0.811133         4.527962        -0.838861
 H        -0.513058         5.348794         0.787568
 H         1.659936         2.293544         1.187962
 H         1.281611         3.661899         2.204256
 H        -0.669283         2.169278         2.660844
