19
Iteration:  1073
 O         0.340294         0.403816         0.126957
 C        -0.676305         1.203303         0.588094
 C        -2.117044         0.907122         0.642045
 C        -1.689461         2.124378        -0.207118
 C        -1.360142         3.263463         0.790033
 C        -0.376587         4.276037         0.176153
 O         0.945772         3.849450         0.315499
 C         1.031582         2.982205         1.501043
 C        -0.374681         2.347969         1.656961
 H         0.402007        -0.425671         0.646128
 H        -2.454570         0.019563         0.080689
 H        -2.713647         1.080305         1.619479
 H        -1.717695         2.312476        -1.255318
 H        -2.127226         3.889498         1.345521
 H        -0.520014         4.365740        -0.893393
 H        -0.474175         5.264040         0.687805
 H         1.835540         2.195649         1.154535
 H         1.213227         3.532540         2.434482
 H        -0.656040         2.236165         2.816066
