19
Iteration:  1082charge 0 multiplicity 1
 O         0.312385         0.430100         0.177273
 C        -0.681078         1.275587         0.611561
 C        -2.180366         0.817862         0.522067
 C        -1.741707         2.085473        -0.147240
 C        -1.344045         3.244159         0.854988
 C        -0.301303         4.250441         0.215816
 O         0.977337         3.839974         0.290990
 C         1.023772         3.043647         1.467027
 C        -0.354776         2.366053         1.605206
 H         0.268399        -0.346942         0.780587
 H        -2.453794         0.014041        -0.133085
 H        -2.814337         0.818436         1.495833
 H        -1.743360         2.160438        -1.241126
 H        -2.229759         3.919762         1.280878
 H        -0.605853         4.497432        -0.830308
 H        -0.481938         5.285340         0.681877
 H         1.935335         2.383573         1.380905
 H         1.375534         3.682513         2.334278
 H        -0.319905         2.042169         2.688444
