19
Iteration:  3875charge 0 multiplicity 1
 O         0.352199         0.264740         0.454538
 C        -0.763305         1.110667         0.607819
 C        -2.221660         0.932722         0.537823
 C        -1.659131         1.978796        -0.311306
 C        -1.296652         3.277313         0.516704
 C        -0.187473         4.393158         0.082159
 O         0.817641         4.241758         1.038610
 C         1.021509         2.831167         1.233020
 C        -0.348595         2.311275         1.430144
 H         0.132229        -0.510460        -0.150691
 H        -2.626191         0.248884        -0.162862
 H        -2.800279         1.202507         1.359332
 H        -1.725349         2.032459        -1.408609
 H        -2.208122         3.646271         0.943098
 H         0.267533         4.188693        -0.884824
 H        -0.558620         5.373607        -0.021581
 H         1.569023         2.446846         0.354917
 H         1.832550         2.624193         1.966346
 H        -0.529432         2.407606         2.484830
