19
Iteration:  4697
 O         0.201387         0.085645         0.368093
 C        -0.713987         1.130825         0.605030
 C        -2.237490         0.950007         0.495989
 C        -1.596399         2.019699        -0.293522
 C        -1.223640         3.289839         0.638408
 C        -0.294524         4.240111         0.011611
 O         0.762194         4.410638         0.941054
 C         1.098986         3.002010         1.285228
 C        -0.231850         2.273959         1.529716
 H         0.037243        -0.324435        -0.447043
 H        -2.156604        -0.031974         0.137682
 H        -2.838719         1.059181         1.430943
 H        -1.676311         1.954245        -1.355461
 H        -2.077028         3.718696         1.324513
 H         0.187670         3.631480        -0.818960
 H        -0.722683         5.273821        -0.081935
 H         1.679639         2.432443         0.396046
 H         1.779712         3.074247         2.212604
 H        -0.640901         2.184797         2.503910
