19
Iteration:  1028
 O         0.238903         0.311134         0.048294
 C        -0.669771         1.192433         0.666327
 C        -2.157578         0.862204         0.672952
 C        -1.627709         2.054469        -0.196713
 C        -1.296140         3.204331         0.688417
 C        -0.410298         4.383765         0.227645
 O         1.041342         3.881777         0.330519
 C         1.027751         3.109195         1.539044
 C        -0.387207         2.361717         1.591326
 H         0.355725        -0.454768         0.665351
 H        -2.363443        -0.147974         0.327989
 H        -2.828516         1.104607         1.590290
 H        -1.818863         2.040365        -1.289548
 H        -2.184956         3.758502         1.159531
 H        -0.584175         4.802175        -0.768420
 H        -0.597177         5.150314         1.017843
 H         1.907887         2.365259         1.369127
 H         1.154341         3.865117         2.342374
 H        -0.657785         2.186395         2.733734
