19
Iteration:  2358charge 0 multiplicity 1
 O         0.353777         0.331181         0.314498
 C        -0.699503         1.170243         0.617642
 C        -2.140543         0.917209         0.556635
 C        -1.566143         2.204010        -0.218457
 C        -1.326361         3.239231         0.756165
 C        -0.475653         4.310820         0.220740
 O         0.953694         3.845348         0.301631
 C         0.989112         2.988624         1.446629
 C        -0.333840         2.358759         1.664086
 H         0.078983        -0.289441        -0.388119
 H        -2.422473         0.122718        -0.152790
 H        -2.812241         1.071815         1.378090
 H        -1.527355         2.299460        -1.325580
 H        -2.227907         3.758181         1.376808
 H        -0.601611         4.472040        -0.836793
 H        -0.587737         5.255819         0.768271
 H         1.885889         2.223724         1.315147
 H         1.300650         3.571686         2.312723
 H        -0.754273         2.196408         2.668009
