19
Iteration:   280charge 0 multiplicity 1
 O         0.317175         0.237298         0.141380
 C        -0.722466         1.102485         0.666423
 C        -2.183069         0.833042         0.602141
 C        -1.686454         2.046975        -0.134288
 C        -1.277174         3.263133         0.795661
 C        -0.352327         4.475344         0.191629
 O         1.025245         3.981608         0.301410
 C         0.992488         3.101949         1.432939
 C        -0.388762         2.343122         1.600370
 H         0.229747        -0.609678         0.566330
 H        -2.564559         0.019021        -0.019297
 H        -2.718162         0.984768         1.560049
 H        -1.541203         2.043401        -1.217030
 H        -2.128264         3.497923         1.355951
 H        -0.706996         4.836081        -0.840050
 H        -0.468116         5.299431         0.854087
 H         1.818441         2.402293         1.289183
 H         1.256320         3.649023         2.293284
 H        -0.627462         2.159699         2.696867
