19
Iteration:  4493charge 0 multiplicity 1
 O         0.236596         0.151553         0.270692
 C        -0.752991         1.115619         0.679388
 C        -2.214350         0.956862         0.426931
 C        -1.529391         2.011432        -0.252063
 C        -1.254253         3.245802         0.720963
 C        -0.258544         4.213060         0.050293
 O         0.855177         4.353142         0.831875
 C         1.053170         3.017679         1.392255
 C        -0.395146         2.325953         1.573952
 H         0.066114        -0.016102        -0.644371
 H        -2.197284         0.040983        -0.096471
 H        -2.942757         0.923625         1.232134
 H        -1.554899         1.999513        -1.346676
 H        -2.196579         3.550652         1.162176
 H         0.099586         3.628533        -0.937781
 H        -0.698981         5.130735        -0.274502
 H         1.824379         2.530492         0.723078
 H         1.659700         3.072770         2.334146
 H        -0.703669         2.216588         2.625369
