19
Iteration:  2446
 O         0.285512         0.294194         0.229506
 C        -0.656717         1.177470         0.700744
 C        -2.096313         0.930125         0.616740
 C        -1.516450         2.107800        -0.190273
 C        -1.366040         3.298029         0.752129
 C        -0.401508         4.325746         0.230132
 O         0.923188         3.827458         0.310050
 C         0.986096         2.981144         1.433022
 C        -0.425614         2.380108         1.558696
 H         1.136507         0.630160         0.140755
 H        -2.396677         0.171415        -0.114529
 H        -2.766663         1.147245         1.401781
 H        -1.769735         2.227289        -1.227094
 H        -2.287408         3.629064         1.354893
 H        -0.592302         4.583419        -0.780563
 H        -0.499568         5.259963         0.801923
 H         1.651927         2.039204         1.145452
 H         1.373136         3.500294         2.312942
 H        -0.859636         2.228076         2.607525
