19
Iteration:   836charge 0 multiplicity 1
 O         0.270426         0.208257         0.110472
 C        -0.631800         1.272423         0.553562
 C        -2.117583         0.897683         0.656827
 C        -1.671596         2.014188        -0.185385
 C        -1.373401         3.267444         0.722213
 C        -0.392036         4.417549         0.291137
 O         1.026743         3.864819         0.291399
 C         0.996491         3.096490         1.502664
 C        -0.383247         2.348928         1.607522
 H         0.466790        -0.248352         0.947529
 H        -2.276031        -0.063420         0.178498
 H        -2.693623         1.218235         1.572196
 H        -1.980314         1.864210        -1.272743
 H        -2.303493         3.796827         1.190997
 H        -0.514907         4.687733        -0.775567
 H        -0.414071         5.311259         0.913956
 H         1.861785         2.356028         1.446462
 H         1.253489         3.738522         2.394663
 H        -0.662955         2.164358         2.668398
