19
Iteration:  4294
 O         0.268210         0.187615         0.401511
 C        -0.748409         1.134603         0.635454
 C        -2.198196         0.906223         0.478989
 C        -1.517512         2.022112        -0.308116
 C        -1.305607         3.234270         0.559073
 C        -0.236711         4.393356         0.091355
 O         0.817721         4.310939         1.003497
 C         1.059975         2.869781         1.233927
 C        -0.364927         2.345094         1.472735
 H        -0.152302        -0.662921         0.255726
 H        -2.399872         0.011670        -0.079614
 H        -2.929551         1.144423         1.254337
 H        -1.548022         1.911823        -1.396533
 H        -2.175030         3.666940         1.114910
 H         0.039165         4.191902        -1.015238
 H        -0.570289         5.390734         0.130474
 H         1.484838         2.400708         0.310391
 H         1.918180         2.712804         2.016422
 H        -0.696838         2.180422         2.489159
