19
Iteration:  3824
 O         0.228962        -0.029552         0.299789
 C        -0.742000         1.106506         0.629237
 C        -2.213899         0.995706         0.478529
 C        -1.492257         2.052281        -0.306938
 C        -1.220680         3.274156         0.616768
 C        -0.276295         4.273152         0.025689
 O         0.816816         4.345468         0.947860
 C         1.055909         3.022382         1.411779
 C        -0.342647         2.315217         1.513693
 H         0.033282        -0.163803        -0.581774
 H        -2.485159         0.005523         0.054281
 H        -2.897863         1.355020         1.398517
 H        -1.880815         2.174566        -1.305432
 H        -2.193874         3.617909         1.098905
 H         0.070459         4.012756        -1.042777
 H        -0.695604         5.277367        -0.106731
 H         1.758153         2.542169         0.616867
 H         1.561910         3.157809         2.393360
 H        -0.610386         2.271962         2.605772
