19
Iteration:  1676
 O         0.262119         0.309944         0.172186
 C        -0.775449         1.149671         0.674329
 C        -2.151294         0.873221         0.581341
 C        -1.556501         2.062563        -0.177821
 C        -1.298617         3.293955         0.708189
 C        -0.363061         4.453338         0.280427
 O         0.994534         3.873741         0.295957
 C         1.011168         2.994469         1.491948
 C        -0.362526         2.394383         1.575262
 H         0.197624        -0.502111         0.566882
 H        -2.316872         0.133210        -0.133593
 H        -2.735044         0.794581         1.380130
 H        -1.748005         1.824717        -1.271576
 H        -2.196544         3.604500         1.171155
 H        -0.512380         4.827161        -0.679557
 H        -0.573798         5.297977         1.031738
 H         1.901381         2.461198         1.255237
 H         1.080401         3.547094         2.415762
 H        -0.633222         2.190808         2.653365
