19
Iteration:  3866
 O         0.312529         0.248350         0.400047
 C        -0.719533         1.111932         0.694067
 C        -2.196563         0.939112         0.605863
 C        -1.613587         1.995165        -0.387208
 C        -1.265945         3.248148         0.488783
 C        -0.214357         4.398860         0.059412
 O         0.794522         4.220517         1.091686
 C         1.128516         2.835436         1.206677
 C        -0.425610         2.364976         1.425713
 H         0.082421        -0.378756        -0.357228
 H        -2.537611         0.106683        -0.036535
 H        -3.061158         1.090928         1.353141
 H        -1.933629         1.848971        -1.421400
 H        -2.016644         3.724105         1.001165
 H         0.286762         4.139248        -0.952267
 H        -0.503997         5.427647         0.062212
 H         1.390116         2.400064         0.283126
 H         1.654510         2.761535         2.152077
 H        -0.777090         2.440026         2.454559
