19
Iteration:   940charge 0 multiplicity 1
 O         0.376396         0.350869         0.344380
 C        -0.752793         1.187042         0.730817
 C        -2.149078         0.861978         0.494087
 C        -1.560247         2.048456        -0.199328
 C        -1.303888         3.245619         0.718538
 C        -0.365676         4.408327         0.477540
 O         0.899553         3.900433         0.146751
 C         1.041042         2.962053         1.275371
 C        -0.428543         2.401958         1.614133
 H         0.012920        -0.479292         0.448101
 H        -2.347869         0.140666        -0.358346
 H        -3.055508         0.949654         1.105809
 H        -1.537968         1.960670        -1.306274
 H        -2.156499         3.729717         1.251892
 H        -0.639606         5.108235        -0.322861
 H        -0.392085         4.998958         1.382252
 H         1.762602         2.088719         1.039346
 H         1.307686         3.439968         2.249099
 H        -0.523512         2.433613         2.803936
