19
Iteration:  1363charge 0 multiplicity 1
 O         0.411583         0.323416         0.243689
 C        -0.694159         1.223153         0.612275
 C        -2.108155         0.827813         0.546489
 C        -1.715773         2.168909        -0.120345
 C        -1.374508         3.319443         0.829809
 C        -0.341756         4.425358         0.242520
 O         1.023002         3.761491         0.168569
 C         0.904362         2.997217         1.486803
 C        -0.395495         2.355886         1.569759
 H         0.325127        -0.329309         0.902832
 H        -2.305245         0.178166        -0.380289
 H        -2.898148         0.710324         1.352386
 H        -1.822555         2.126162        -1.179744
 H        -2.079588         3.770121         1.464228
 H        -0.768654         4.860490        -0.718296
 H        -0.242777         5.184107         1.038170
 H         1.731232         2.319110         1.508711
 H         1.227276         3.652526         2.278569
 H        -0.796297         2.129283         2.609266
