19
Iteration:  4422charge 0 multiplicity 1
 O         0.314589         0.260095         0.189107
 C        -0.736811         1.139040         0.587818
 C        -2.220494         0.954725         0.649615
 C        -1.591588         1.984153        -0.301358
 C        -1.235447         3.227150         0.480972
 C        -0.195967         4.300943         0.028937
 O         0.799305         4.274478         0.975653
 C         1.015324         2.913725         1.404185
 C        -0.382634         2.312485         1.530277
 H        -0.034500        -0.605931         0.315449
 H        -2.417879         0.031638         0.130365
 H        -2.789910         1.054017         1.635209
 H        -1.614534         1.968693        -1.386316
 H        -2.118431         3.680375         1.003559
 H         0.121566         4.049526        -1.061500
 H        -0.632117         5.391120         0.055784
 H         1.644157         2.284692         0.748855
 H         1.629581         3.059696         2.280973
 H        -0.829811         2.335384         2.585053
