19
Iteration:  4233
 O         0.213229         0.140160         0.336996
 C        -0.704852         1.102277         0.676661
 C        -2.153437         0.907888         0.425737
 C        -1.545975         2.025072        -0.344597
 C        -1.246281         3.213603         0.631088
 C        -0.310472         4.323051         0.074603
 O         0.907900         4.344117         0.799905
 C         1.066479         2.939575         1.446717
 C        -0.394420         2.341350         1.527878
 H        -0.230587        -0.568000        -0.066637
 H        -2.437184        -0.017366        -0.135792
 H        -2.786339         1.298303         1.250306
 H        -1.827798         2.253058        -1.374091
 H        -2.102144         3.598248         1.196172
 H        -0.202056         4.196837        -0.985612
 H        -0.718850         5.310720         0.446732
 H         1.630279         2.335087         0.760202
 H         1.506813         3.157342         2.363630
 H        -0.687836         2.237937         2.607853
