19
Iteration:  3193charge 0 multiplicity 1
 O         0.310584         0.284498         0.255310
 C        -0.654403         1.241443         0.605226
 C        -2.085449         0.884338         0.541383
 C        -1.506436         2.061765        -0.306364
 C        -1.335846         3.324507         0.553504
 C        -0.359883         4.460731         0.331333
 O         0.961765         3.932165         0.411164
 C         0.891172         2.866170         1.521334
 C        -0.485834         2.311365         1.583285
 H         0.640140        -0.159038         1.144491
 H        -2.295748         0.000104        -0.072393
 H        -2.714506         1.049555         1.431166
 H        -1.663107         2.006506        -1.394688
 H        -2.157428         3.739632         1.077170
 H        -0.525808         4.916964        -0.676884
 H        -0.594633         5.108790         1.216122
 H         1.730792         2.175874         1.061695
 H         1.135815         3.377142         2.422685
 H        -0.859718         2.289505         2.654203
