19
Iteration:  4756charge 0 multiplicity 1
 O         0.316568         0.307446         0.291772
 C        -0.678744         1.181153         0.607942
 C        -2.126218         0.916731         0.641099
 C        -1.602200         2.005533        -0.249786
 C        -1.300945         3.228126         0.555667
 C        -0.252083         4.286068         0.009300
 O         0.899855         4.191448         0.844963
 C         0.970228         2.894603         1.345165
 C        -0.443832         2.350781         1.546288
 H         0.192373        -0.196132        -0.523003
 H        -2.582079        -0.006001         0.226249
 H        -2.555531         1.064647         1.584643
 H        -1.827326         1.905683        -1.345783
 H        -2.147405         3.699955         0.974877
 H        -0.116955         4.414594        -1.058916
 H        -0.722517         5.219058         0.242368
 H         1.571185         2.153850         0.734502
 H         1.388333         2.958378         2.406980
 H        -0.842563         2.234814         2.613918
