19
Iteration:  1208charge 0 multiplicity 1
 O         0.200815         0.181237         0.253760
 C        -0.649233         1.224834         0.632200
 C        -2.164171         0.947895         0.547712
 C        -1.499119         2.095208        -0.236260
 C        -1.373031         3.246471         0.756902
 C        -0.521664         4.362361         0.245227
 O         0.922662         4.016729         0.385593
 C         1.107716         2.963236         1.377611
 C        -0.250820         2.355517         1.597604
 H         0.041169        -0.534421         0.874170
 H        -2.252273         0.024229         0.041923
 H        -2.816449         1.178805         1.362326
 H        -1.569276         2.258653        -1.357413
 H        -2.182111         3.638295         1.269824
 H        -0.644758         4.498462        -0.825679
 H        -0.753436         5.285049         0.777809
 H         1.877901         2.240191         1.001484
 H         1.472305         3.446401         2.318324
 H        -0.334836         2.227514         2.743405
