19
Iteration:  3535
 O         0.109663        -0.003315         0.323141
 C        -0.650977         1.150886         0.628873
 C        -2.156485         0.938360         0.611206
 C        -1.494598         1.884179        -0.351234
 C        -1.221268         3.241015         0.561260
 C        -0.386626         4.443730         0.106674
 O         0.893592         4.301905         0.810593
 C         1.059004         2.942438         1.350261
 C        -0.355376         2.406863         1.523351
 H         0.816579         0.383142        -0.341712
 H        -2.366958        -0.055509         0.231800
 H        -2.713780         1.207856         1.488073
 H        -1.865010         1.897831        -1.414186
 H        -2.239868         3.690227         0.930115
 H        -0.320238         4.475132        -0.997268
 H        -0.725636         5.431592         0.454080
 H         1.771545         2.223705         0.857102
 H         1.385500         3.123307         2.463157
 H        -0.711419         2.529503         2.533608
