19
Iteration:  3512
 O         0.185872        -0.052087         0.280752
 C        -0.748690         1.133493         0.587166
 C        -2.229891         0.931513         0.700434
 C        -1.518505         1.934579        -0.318946
 C        -1.223139         3.202595         0.522196
 C        -0.360973         4.417594         0.148729
 O         0.915879         4.311214         0.721854
 C         1.065841         3.113102         1.443958
 C        -0.326898         2.288571         1.505439
 H         0.805167         0.478213        -0.132691
 H        -2.589598         0.174593        -0.012773
 H        -2.914988         1.319008         1.370578
 H        -1.450134         1.831412        -1.440133
 H        -2.155395         3.716640         1.055183
 H        -0.172726         4.580419        -0.895550
 H        -0.731900         5.434403         0.513558
 H         1.683992         2.343796         0.877959
 H         1.435909         3.247387         2.598231
 H        -0.823349         2.240758         2.462137
