19
Iteration:  2173charge 0 multiplicity 1
 O         0.313126         0.389368         0.180119
 C        -0.650798         1.176344         0.721190
 C        -2.175365         0.829763         0.469091
 C        -1.598092         2.114029        -0.153638
 C        -1.425359         3.314765         0.817161
 C        -0.376060         4.343651         0.182123
 O         1.026535         3.881383         0.232755
 C         0.979873         2.990926         1.507315
 C        -0.378666         2.369064         1.672995
 H         0.043095        -0.584867         0.506583
 H        -2.203782        -0.109166         0.038120
 H        -2.845319         0.924649         1.300196
 H        -1.560599         2.219165        -1.252586
 H        -2.353485         3.635406         1.337547
 H        -0.648906         4.619074        -0.835475
 H        -0.226719         5.232627         0.783304
 H         1.894918         2.271433         1.273495
 H         1.316782         3.530434         2.417490
 H        -0.742578         2.048050         2.714379
