19
Iteration:  2256
 O         0.241908         0.209083         0.132949
 C        -0.696842         1.168488         0.764914
 C        -2.161328         0.892966         0.475889
 C        -1.513791         2.090877        -0.218123
 C        -1.356452         3.228396         0.816843
 C        -0.449569         4.451602         0.252133
 O         1.019140         3.880620         0.265879
 C         0.989398         3.094956         1.437678
 C        -0.326757         2.379771         1.705858
 H         0.421683        -0.524583         0.743727
 H        -2.410651         0.011387        -0.201841
 H        -3.049653         1.097569         1.176009
 H        -1.233013         2.106406        -1.235391
 H        -2.279842         3.590734         1.361186
 H        -0.841694         4.658213        -0.793053
 H        -0.395194         5.404151         0.763748
 H         1.847702         2.430196         1.433583
 H         1.033459         3.791768         2.281808
 H        -0.471881         2.086785         2.750330
