19
Iteration:  2976
 O         0.258010         0.275456         0.160400
 C        -0.657049         1.211244         0.635765
 C        -2.075624         0.912384         0.515177
 C        -1.539165         2.087340        -0.231400
 C        -1.292275         3.261885         0.715474
 C        -0.402775         4.388670         0.281723
 O         0.938029         3.794879         0.312156
 C         0.944116         3.063311         1.563765
 C        -0.401429         2.381926         1.596676
 H         0.550681        -0.222845         0.916588
 H        -2.101166        -0.026395        -0.049877
 H        -2.951540         0.958697         1.179063
 H        -1.597564         2.132998        -1.294969
 H        -2.261467         3.596613         1.299196
 H        -0.410744         4.936735        -0.707961
 H        -0.454422         5.227190         1.004108
 H         1.629389         2.331796         1.598082
 H         0.967886         3.735807         2.434813
 H        -0.804254         2.293000         2.613631
