19
Iteration:  2289
 O         0.351445         0.225313         0.261824
 C        -0.649134         1.266643         0.619182
 C        -2.124719         0.976100         0.519105
 C        -1.571881         2.164391        -0.300963
 C        -1.380580         3.277841         0.827436
 C        -0.479825         4.413350         0.291827
 O         0.917061         3.767728         0.275777
 C         1.004712         3.004210         1.439401
 C        -0.341927         2.326305         1.582341
 H         0.517269        -0.339952         1.134993
 H        -2.387889         0.079250        -0.059149
 H        -2.786879         1.389647         1.380224
 H        -1.419880         2.322952        -1.343789
 H        -2.315994         3.474239         1.442683
 H        -0.840658         4.607053        -0.757690
 H        -0.469940         5.286777         0.898198
 H         1.794584         2.224054         1.372923
 H         1.238372         3.555643         2.367100
 H        -0.492640         2.136136         2.702637
