19
Iteration:  4550
 O         0.194120         0.053819         0.362827
 C        -0.654456         1.118923         0.509047
 C        -2.175528         0.875083         0.590367
 C        -1.562469         2.021983        -0.283842
 C        -1.351111         3.241757         0.547233
 C        -0.311983         4.459487         0.117122
 O         0.945368         4.241774         0.851022
 C         1.029712         2.927831         1.385492
 C        -0.396127         2.369049         1.447692
 H         1.126902         0.450152         0.040197
 H        -2.490976        -0.028219         0.045785
 H        -2.583603         1.204306         1.614712
 H        -1.694109         2.120705        -1.334040
 H        -2.345509         3.508839         1.060922
 H        -0.167798         4.446077        -1.061928
 H        -0.797534         5.401244         0.288357
 H         1.828971         2.318977         0.750096
 H         1.209292         3.025862         2.442304
 H        -0.647870         2.427257         2.484195
