19
Iteration:  2258
 O         0.243234         0.204585         0.137954
 C        -0.696248         1.187499         0.760297
 C        -2.168743         0.897178         0.467293
 C        -1.507012         2.092826        -0.211398
 C        -1.347623         3.219152         0.807876
 C        -0.443291         4.443191         0.248306
 O         1.009983         3.878425         0.263570
 C         0.986357         3.102627         1.434724
 C        -0.321107         2.356769         1.720378
 H         0.437480        -0.450027         0.743441
 H        -2.396125         0.120528        -0.234496
 H        -3.012240         1.094406         1.188633
 H        -1.293222         2.084876        -1.269516
 H        -2.339533         3.592743         1.374811
 H        -0.887977         4.623422        -0.752722
 H        -0.413367         5.465549         0.769558
 H         1.898681         2.387377         1.420021
 H         1.017895         3.772933         2.289994
 H        -0.476993         2.160195         2.799534
