19
Iteration:  1491
 O         0.356881         0.287178         0.236345
 C        -0.700157         1.158942         0.732748
 C        -2.155294         0.962430         0.543994
 C        -1.449037         2.112830        -0.236118
 C        -1.371503         3.333242         0.764864
 C        -0.417203         4.448663         0.368374
 O         0.855056         3.792629         0.255865
 C         1.014365         2.913354         1.340710
 C        -0.379519         2.410884         1.593406
 H         0.523334        -0.621732         0.728273
 H        -2.471042         0.131163        -0.059946
 H        -2.899001         1.186620         1.253281
 H        -1.457998         2.149434        -1.336546
 H        -2.324455         3.668680         1.327322
 H        -0.571043         4.854506        -0.561857
 H        -0.481485         5.222749         1.148566
 H         1.771678         2.172319         1.032139
 H         1.309465         3.472873         2.171348
 H        -0.678113         2.176424         2.611157
