19
Iteration:  1084charge 0 multiplicity 1
 O         0.310244         0.427591         0.187006
 C        -0.691414         1.289142         0.621664
 C        -2.191261         0.804348         0.502025
 C        -1.742296         2.081319        -0.129031
 C        -1.340168         3.251059         0.859850
 C        -0.314892         4.264142         0.213018
 O         0.997167         3.829708         0.288160
 C         1.024339         3.062638         1.456817
 C        -0.344838         2.366626         1.594159
 H         0.247445        -0.272715         0.752301
 H        -2.414476        -0.022632        -0.218500
 H        -2.843521         0.793769         1.460261
 H        -1.784073         2.128594        -1.183698
 H        -2.224781         3.836770         1.285066
 H        -0.596062         4.485891        -0.800841
 H        -0.473071         5.257774         0.726692
 H         1.977107         2.343030         1.420646
 H         1.346317         3.708965         2.295787
 H        -0.334795         1.970527         2.721162
