19
Iteration:   641charge 0 multiplicity 1
 O         0.316161         0.204169         0.372746
 C        -0.663162         1.212415         0.595781
 C        -2.229715         1.041440         0.565490
 C        -1.556019         2.087540        -0.261023
 C        -1.287744         3.205636         0.729794
 C        -0.498837         4.353820         0.328541
 O         0.876644         3.986389         0.325127
 C         1.117048         2.971531         1.314225
 C        -0.259267         2.297932         1.537979
 H        -0.000034        -0.690170         0.848518
 H        -2.589406         0.164370         0.011635
 H        -2.751385         1.461462         1.368159
 H        -1.863469         2.333398        -1.281791
 H        -2.230987         3.568606         1.205112
 H        -0.711431         4.851468        -0.676218
 H        -0.694544         5.056887         1.181531
 H         1.938949         2.393730         1.004599
 H         1.385735         3.542858         2.308843
 H        -0.419470         1.998533         2.620144
