19
Iteration:   746
 O         0.369838         0.346966         0.141919
 C        -0.609624         1.268747         0.573628
 C        -2.049265         0.874707         0.627085
 C        -1.608490         2.152382        -0.163665
 C        -1.346344         3.343971         0.826799
 C        -0.352394         4.344266         0.213987
 O         0.894310         3.665724         0.229289
 C         0.905636         3.048764         1.481043
 C        -0.414557         2.372800         1.676592
 H        -0.031897        -0.477049         0.389896
 H        -2.420922        -0.061491         0.077780
 H        -2.729291         1.199724         1.498287
 H        -1.729046         2.337418        -1.188536
 H        -2.263125         3.694519         1.359491
 H        -0.514169         4.739673        -0.765189
 H        -0.341269         5.158922         0.926769
 H         1.780298         2.235957         1.454708
 H         1.087942         3.744766         2.302810
 H        -0.747062         2.127962         2.659229
