19
Iteration:  3758charge 0 multiplicity 1
 O         0.212868         0.188727         0.171675
 C        -0.689897         1.108915         0.634663
 C        -2.205631         0.906576         0.615702
 C        -1.544377         2.008236        -0.270888
 C        -1.231649         3.310693         0.564919
 C        -0.221595         4.370497        -0.041774
 O         0.841763         4.215814         0.908974
 C         0.972134         2.905306         1.407786
 C        -0.405889         2.314229         1.571539
 H         1.121548         0.332063         0.656905
 H        -2.466053        -0.055161         0.075821
 H        -2.861342         1.084048         1.591483
 H        -1.858393         1.890623        -1.322080
 H        -2.084753         3.988366         1.019862
 H         0.110903         4.177925        -1.047950
 H        -0.584796         5.376976        -0.060671
 H         1.555422         2.312813         0.669252
 H         1.637810         2.829194         2.290470
 H        -0.918369         2.277399         2.559971
