19
Iteration:  4336
 O         0.213544         0.128619         0.268708
 C        -0.663850         1.128723         0.625364
 C        -2.151551         0.959788         0.533390
 C        -1.545101         1.908630        -0.387995
 C        -1.296334         3.272068         0.510670
 C        -0.252510         4.382276         0.106180
 O         0.877485         4.328060         1.049163
 C         0.996248         2.899600         1.275000
 C        -0.406605         2.319804         1.503850
 H         0.427347        -0.382495         1.168871
 H        -2.513636         0.073182         0.166459
 H        -2.755067         1.415577         1.202607
 H        -1.874655         1.905893        -1.419684
 H        -2.127764         3.644324         1.003679
 H         0.085894         4.519836        -0.890432
 H        -0.770660         5.350170         0.167628
 H         1.472349         2.392741         0.398089
 H         1.816392         2.781361         2.041969
 H        -0.771762         2.324289         2.587756
