19
Iteration:   528
 O         0.344840         0.341403         0.150451
 C        -0.667698         1.277358         0.629677
 C        -2.112612         0.758981         0.594976
 C        -1.708812         2.070352        -0.104966
 C        -1.311442         3.364129         0.767415
 C        -0.260993         4.475022         0.251634
 O         0.900166         3.713621         0.240696
 C         0.900967         2.987237         1.413266
 C        -0.388626         2.439700         1.602201
 H         0.577676        -0.173745         0.923238
 H        -2.159918        -0.004823        -0.205329
 H        -2.750795         0.644174         1.534287
 H        -1.863623         2.020062        -1.213627
 H        -2.077801         3.852223         1.503054
 H        -0.501443         4.877472        -0.728301
 H        -0.228651         5.238962         1.052586
 H         1.731246         2.195693         1.460266
 H         1.064961         3.680944         2.294799
 H        -0.512436         2.089006         2.746141
