19
Iteration:  3581
 O         0.241091         0.104691         0.438131
 C        -0.727585         1.103865         0.645434
 C        -2.266101         0.898881         0.448607
 C        -1.567125         2.099819        -0.258196
 C        -1.255675         3.272730         0.692106
 C        -0.308437         4.270014         0.029578
 O         0.830274         4.304391         0.877297
 C         1.085967         2.941108         1.223527
 C        -0.305958         2.340713         1.510508
 H         1.117528         0.596674         0.568666
 H        -2.444236         0.120186        -0.313256
 H        -3.263943         1.017758         1.039287
 H        -1.682233         2.241945        -1.365402
 H        -2.119243         3.591747         1.446434
 H        -0.068486         3.707109        -0.929043
 H        -0.665278         5.197513        -0.163455
 H         1.308556         2.393252         0.171580
 H         1.911602         2.956140         1.936988
 H        -0.493258         2.287904         2.583158
