19
Iteration:  2712charge 0 multiplicity 1
 O         0.266492         0.226462         0.192547
 C        -0.645601         1.177402         0.691458
 C        -2.148899         0.929734         0.557504
 C        -1.564090         2.102227        -0.180936
 C        -1.383973         3.246134         0.763705
 C        -0.411231         4.354706         0.203868
 O         0.920463         3.852061         0.249984
 C         1.026305         3.111460         1.478917
 C        -0.378030         2.315116         1.660308
 H         1.039031         0.482086         0.809416
 H        -2.383364         0.013980         0.018385
 H        -2.874666         1.245922         1.315226
 H        -1.561309         2.271626        -1.237250
 H        -2.233548         3.598151         1.334873
 H        -0.504940         4.501974        -0.934606
 H        -0.385990         5.329746         0.657930
 H         1.949072         2.432131         1.269663
 H         1.299498         3.759429         2.352888
 H        -0.663790         2.032459         2.719240
