19
Iteration:   587
 O         0.281581         0.212670         0.264466
 C        -0.731472         1.174940         0.726505
 C        -2.150407         0.939206         0.533234
 C        -1.473541         2.083728        -0.214236
 C        -1.329760         3.244252         0.810455
 C        -0.469654         4.450072         0.331977
 O         0.903055         3.867279         0.189500
 C         1.103511         3.088055         1.375199
 C        -0.357789         2.356845         1.669593
 H        -0.160222        -0.736484         0.157253
 H        -2.436258         0.175026        -0.211125
 H        -2.876650         1.120049         1.269554
 H        -1.193241         2.129225        -1.253182
 H        -2.271996         3.529040         1.285093
 H        -0.717069         4.812796        -0.721585
 H        -0.499366         5.282965         0.975083
 H         1.762422         2.351735         1.075938
 H         1.478581         3.696523         2.153187
 H        -0.518216         2.088598         2.704057
