19
Iteration:  1374
 O         0.378856         0.318950         0.254691
 C        -0.635708         1.145069         0.603758
 C        -2.092060         0.946836         0.589942
 C        -1.674652         2.178946        -0.165141
 C        -1.361808         3.284797         0.788529
 C        -0.348463         4.365938         0.275306
 O         0.982271         3.811970         0.261146
 C         0.947110         3.017789         1.404174
 C        -0.459095         2.311925         1.535149
 H         0.389486        -0.498334         0.883488
 H        -2.514514         0.153922        -0.120012
 H        -2.604921         0.988752         1.606648
 H        -1.889602         2.366948        -1.206736
 H        -2.189688         3.657964         1.338895
 H        -0.570443         4.684590        -0.804263
 H        -0.403146         5.274208         0.912858
 H         1.680657         2.246218         1.301836
 H         0.896678         3.623249         2.307932
 H        -0.459347         2.165262         2.626783
