19
Iteration:  3110
 O         0.329276         0.239351         0.327457
 C        -0.625081         1.247973         0.594320
 C        -2.002759         0.968290         0.414201
 C        -1.592762         2.210702        -0.262629
 C        -1.338814         3.240689         0.738020
 C        -0.411892         4.304614         0.230962
 O         0.904789         3.757119         0.336001
 C         0.967072         3.084792         1.564724
 C        -0.448029         2.357227         1.677170
 H        -0.052401        -0.392622        -0.308453
 H        -2.006394         0.142104        -0.326971
 H        -2.691692         0.918505         1.292698
 H        -1.797163         2.614264        -1.297120
 H        -2.333202         3.711525         1.298639
 H        -0.572130         4.661854        -0.837687
 H        -0.530330         5.213663         0.890785
 H         1.693306         2.396470         1.443382
 H         1.233166         3.582147         2.555448
 H        -0.645565         2.006881         2.686557
