19
Iteration:  1178
 O         0.326033         0.201608         0.282703
 C        -0.739992         1.103128         0.668585
 C        -2.176025         0.801150         0.497782
 C        -1.593152         2.126521        -0.155937
 C        -1.373836         3.331507         0.777145
 C        -0.410794         4.502064         0.341736
 O         1.016107         4.013403         0.218435
 C         1.032962         2.951363         1.348279
 C        -0.394327         2.354964         1.584049
 H         0.315185        -0.605643         0.980052
 H        -2.285180         0.054272        -0.262179
 H        -2.803756         0.856876         1.410297
 H        -1.673362         2.185319        -1.246252
 H        -2.202929         3.851999         1.277779
 H        -0.586470         4.835452        -0.776159
 H        -0.339238         5.301143         1.080241
 H         1.774303         2.234484         1.255793
 H         1.319779         3.401179         2.324641
 H        -0.518485         2.173361         2.679956
