19
Iteration:  4611charge 0 multiplicity 1
 O         0.198598         0.123027         0.320287
 C        -0.696570         1.155611         0.659285
 C        -2.138231         0.895333         0.438622
 C        -1.534357         2.105498        -0.230050
 C        -1.297911         3.253919         0.647684
 C        -0.292670         4.276101         0.018304
 O         0.790671         4.307433         0.920563
 C         0.993658         2.936734         1.184786
 C        -0.318299         2.268732         1.598391
 H         0.713768        -0.134810         1.176692
 H        -2.383019         0.145887        -0.218173
 H        -3.005092         1.182924         1.031903
 H        -1.372217         2.240208        -1.296571
 H        -2.071647         3.819485         1.152902
 H         0.103203         3.982310        -0.987444
 H        -0.721914         5.321310        -0.055466
 H         1.425687         2.386469         0.380483
 H         1.913529         2.965552         1.908437
 H        -0.419494         2.281039         2.762635
