19
Iteration:  2531
 O         0.280792         0.282200         0.188102
 C        -0.591951         1.229311         0.733573
 C        -2.151357         1.007464         0.629193
 C        -1.448639         2.053775        -0.276158
 C        -1.332866         3.259725         0.705245
 C        -0.437483         4.327242         0.274046
 O         0.893881         3.787127         0.278764
 C         0.930351         2.994023         1.480705
 C        -0.374845         2.387044         1.644498
 H         0.954255         0.763779        -0.483441
 H        -2.551729         0.036998         0.182340
 H        -2.817885         1.117900         1.544794
 H        -1.716235         1.960404        -1.303863
 H        -2.284013         3.449324         1.165803
 H        -0.543632         4.710682        -0.719329
 H        -0.411869         5.234607         0.943081
 H         1.549193         2.114177         1.381649
 H         1.164839         3.682095         2.321480
 H        -0.644438         2.483699         2.692988
