19
Iteration:   910
 O         0.365886         0.221649         0.428474
 C        -0.631613         1.235376         0.570043
 C        -2.047055         0.933168         0.509611
 C        -1.638541         2.152058        -0.245556
 C        -1.299995         3.281301         0.833331
 C        -0.459303         4.505662         0.315531
 O         0.853276         3.895643         0.230044
 C         1.014217         2.898553         1.367287
 C        -0.350511         2.292770         1.579328
 H        -0.169026        -0.672108         0.598681
 H        -2.382197         0.228209        -0.296826
 H        -2.889688         1.069100         1.318205
 H        -1.895218         2.344405        -1.320329
 H        -2.122371         3.538908         1.457366
 H        -0.671590         4.761746        -0.710691
 H        -0.363804         5.414920         1.024049
 H         1.808057         2.118867         0.870391
 H         1.262508         3.491612         2.245587
 H        -0.512760         2.016377         2.613311
