19
Iteration:   613charge 0 multiplicity 1
 O         0.264135         0.067231         0.376588
 C        -0.683114         1.185626         0.612792
 C        -2.046841         0.869688         0.567223
 C        -1.583515         2.141351        -0.232520
 C        -1.294048         3.314736         0.786569
 C        -0.431987         4.517840         0.372214
 O         0.919501         3.949047         0.233972
 C         1.025507         3.030204         1.336838
 C        -0.367488         2.346412         1.492254
 H        -0.206901        -0.838468         0.512637
 H        -2.142667        -0.045446        -0.037429
 H        -2.750300         1.102026         1.423797
 H        -1.860481         2.431490        -1.282304
 H        -2.158609         3.655593         1.332013
 H        -0.687135         5.059256        -0.519564
 H        -0.437896         5.191353         1.270792
 H         1.933369         2.350102         1.094671
 H         1.131512         3.660078         2.185494
 H        -0.566217         2.074831         2.511820
