19
Iteration:   881charge 0 multiplicity 1
 O         0.254833         0.203075         0.227246
 C        -0.649577         1.187304         0.692146
 C        -2.143571         0.967363         0.553656
 C        -1.491938         2.069825        -0.258519
 C        -1.363130         3.240617         0.832587
 C        -0.498615         4.374388         0.236108
 O         0.906091         3.947097         0.251467
 C         1.077403         3.049727         1.447888
 C        -0.296085         2.323945         1.677303
 H        -0.189178        -0.673431         0.150010
 H        -2.519240         0.195594        -0.037670
 H        -2.836674         1.367221         1.276029
 H        -1.413828         2.341064        -1.315090
 H        -2.385578         3.430848         1.338292
 H        -0.658657         4.626242        -0.840146
 H        -0.496080         5.316077         0.751718
 H         1.928546         2.469373         1.273455
 H         1.354125         3.691601         2.303324
 H        -0.358585         2.046963         2.755905
