19
Iteration:  2836charge 0 multiplicity 1
 O         0.287561         0.328953         0.252440
 C        -0.678260         1.184250         0.584624
 C        -2.159214         0.886740         0.504141
 C        -1.531893         2.090519        -0.174057
 C        -1.359813         3.321679         0.776860
 C        -0.372857         4.427735         0.270211
 O         0.948059         3.822870         0.251408
 C         0.924045         3.008665         1.504235
 C        -0.340776         2.272180         1.608771
 H         0.789919         0.064687         1.124925
 H        -2.283751        -0.077903        -0.040668
 H        -2.869211         0.976069         1.362847
 H        -1.626948         2.157496        -1.264006
 H        -2.251484         3.687252         1.156906
 H        -0.559692         4.690301        -0.799114
 H        -0.422937         5.365200         0.803051
 H         1.862251         2.367877         1.268849
 H         1.096273         3.692657         2.248388
 H        -0.669035         2.116734         2.663345
