19
Iteration:   560
 O         0.351353         0.393181         0.251921
 C        -0.659330         1.291468         0.685627
 C        -2.158638         1.047796         0.516568
 C        -1.532787         2.115267        -0.182928
 C        -1.314634         3.193999         0.817495
 C        -0.453812         4.280315         0.240091
 O         0.861032         3.776799         0.221119
 C         0.978239         2.976015         1.369838
 C        -0.301686         2.311267         1.689616
 H         0.142956        -0.513121         0.717431
 H        -2.440526         0.294132        -0.241866
 H        -2.851914         1.141183         1.416231
 H        -1.591323         2.276349        -1.284566
 H        -2.215285         3.603065         1.379620
 H        -0.675938         4.590524        -0.775578
 H        -0.618149         5.254198         0.839176
 H         1.800507         2.171254         1.134049
 H         1.386552         3.637790         2.269255
 H        -0.409733         2.006519         2.826707
