19
Iteration:  2683
 O         0.323426         0.322075         0.298587
 C        -0.663222         1.224636         0.645736
 C        -2.129265         0.889221         0.603070
 C        -1.579060         2.117449        -0.138880
 C        -1.377156         3.265602         0.742489
 C        -0.414587         4.334507         0.184385
 O         0.961772         3.845435         0.283907
 C         0.971697         2.941276         1.399574
 C        -0.417855         2.337681         1.597154
 H         1.124502         0.998424         0.349147
 H        -2.366665         0.216548        -0.223731
 H        -2.934404         1.070402         1.400796
 H        -1.749797         2.280995        -1.203405
 H        -2.212342         3.528008         1.396481
 H        -0.523042         4.437295        -0.910352
 H        -0.471610         5.340844         0.719777
 H         1.869993         2.344229         1.277255
 H         1.357306         3.424027         2.338334
 H        -0.734986         2.120511         2.623459
