19
Iteration:  1840charge 0 multiplicity 1
 O         0.181327         0.260855         0.199051
 C        -0.650384         1.203800         0.641502
 C        -2.176724         0.830497         0.523497
 C        -1.709419         2.107450        -0.167955
 C        -1.353066         3.254334         0.776765
 C        -0.346508         4.355338         0.215598
 O         1.040191         3.947393         0.373092
 C         1.071003         3.068253         1.497729
 C        -0.339834         2.399249         1.485390
 H         0.426981        -0.489446         0.872710
 H        -2.156573        -0.126939        -0.043845
 H        -2.819185         0.728110         1.356150
 H        -1.763212         2.139059        -1.264411
 H        -2.051054         3.731665         1.388102
 H        -0.422847         4.450773        -0.832089
 H        -0.602538         5.347930         0.635665
 H         1.913591         2.306744         1.432606
 H         1.065446         3.543244         2.536449
 H        -0.466257         2.189988         2.577637
