19
Iteration:  1480charge 0 multiplicity 1
 O         0.312639         0.291828         0.287628
 C        -0.636192         1.208047         0.589745
 C        -2.170010         1.018525         0.551641
 C        -1.491314         2.082744        -0.263420
 C        -1.334248         3.256756         0.750840
 C        -0.482821         4.450048         0.358113
 O         0.903854         3.853575         0.244062
 C         1.014521         2.922067         1.389680
 C        -0.369474         2.291229         1.607478
 H         0.332257        -0.258453         1.075023
 H        -2.599184         0.164925         0.050541
 H        -2.598296         1.348605         1.426150
 H        -1.613474         2.101846        -1.344780
 H        -2.341686         3.445243         1.277530
 H        -0.697083         4.894633        -0.539454
 H        -0.375492         5.223970         1.112988
 H         1.773034         2.156455         1.133188
 H         1.356221         3.360810         2.289229
 H        -0.453944         2.255592         2.683040
