19
Iteration:  4893charge 0 multiplicity 1
 O         0.274667         0.309984         0.284439
 C        -0.612347         1.182826         0.630330
 C        -2.110414         0.937436         0.528945
 C        -1.459251         2.020400        -0.322315
 C        -1.403702         3.264417         0.552195
 C        -0.422634         4.419237         0.320375
 O         1.016176         3.938294         0.435429
 C         0.909767         2.953964         1.531789
 C        -0.426953         2.336319         1.515067
 H         0.656197        -0.348438         0.868831
 H        -2.406193        -0.075012         0.048476
 H        -2.647285         1.167718         1.582397
 H        -1.790682         1.983407        -1.386453
 H        -2.391424         3.612813         0.966135
 H        -0.576683         4.934587        -0.594747
 H        -0.660415         5.340603         1.029901
 H         1.757178         2.226621         1.314008
 H         1.135949         3.416114         2.499091
 H        -0.807201         2.170424         2.561990
