19
Iteration:  1486charge 0 multiplicity 1
 O         0.339066         0.285968         0.262477
 C        -0.670046         1.179274         0.671718
 C        -2.162981         0.981398         0.538412
 C        -1.457211         2.093318        -0.259961
 C        -1.367033         3.328943         0.765973
 C        -0.476764         4.434472         0.378186
 O         0.883495         3.815831         0.247413
 C         1.020318         2.893953         1.363808
 C        -0.372745         2.369581         1.589680
 H         0.483011        -0.444465         0.856721
 H        -2.560453         0.122827        -0.031454
 H        -2.762651         1.369655         1.446834
 H        -1.559885         2.106411        -1.339354
 H        -2.262046         3.483539         1.312827
 H        -0.546402         4.974446        -0.661784
 H        -0.380142         5.272906         1.116178
 H         1.766049         2.188524         1.002557
 H         1.251017         3.481792         2.342485
 H        -0.540808         2.216206         2.704992
