19
Iteration:  4262charge 0 multiplicity 1
 O         0.232446         0.082225         0.487833
 C        -0.683248         1.121733         0.567349
 C        -2.123170         0.982468         0.337696
 C        -1.555486         2.157160        -0.292102
 C        -1.311314         3.239384         0.747178
 C        -0.322237         4.284501         0.040894
 O         0.806249         4.338017         0.844716
 C         1.112814         2.921114         1.364089
 C        -0.338154         2.283694         1.475710
 H        -0.183172        -0.670337         0.066728
 H        -2.378016         0.128837        -0.326066
 H        -2.861128         1.073866         1.234414
 H        -1.806770         2.478594        -1.306297
 H        -2.234383         3.585225         1.376322
 H        -0.203956         3.810971        -1.016010
 H        -0.551328         5.295292        -0.068174
 H         1.638524         2.391858         0.557043
 H         1.769646         3.118507         2.314137
 H        -0.548849         1.970472         2.475826
