19
Iteration:  2752
 O         0.266506         0.071757         0.283969
 C        -0.625941         1.171887         0.582813
 C        -2.124579         0.912234         0.644691
 C        -1.586181         2.096806        -0.271021
 C        -1.401537         3.270098         0.762673
 C        -0.366170         4.458227         0.229115
 O         0.931119         3.844025         0.272131
 C         1.019751         3.155786         1.490702
 C        -0.354726         2.360156         1.638659
 H         0.912645         0.281862        -0.386034
 H        -2.387217         0.167077        -0.106719
 H        -2.900013         1.154379         1.315627
 H        -1.745778         2.068980        -1.350329
 H        -2.454877         3.577834         1.224260
 H        -0.517925         4.880285        -0.714719
 H        -0.514115         5.188725         1.076272
 H         1.879445         2.585077         1.557611
 H         1.126927         3.866375         2.390745
 H        -0.676566         2.235005         2.654446
