19
Iteration:  1775charge 0 multiplicity 1
 O         0.235883         0.309779         0.206156
 C        -0.714143         1.234844         0.704890
 C        -2.159376         0.920006         0.491225
 C        -1.480511         2.002803        -0.231188
 C        -1.309656         3.296634         0.740410
 C        -0.389614         4.425088         0.325170
 O         0.872085         3.819774         0.243290
 C         1.048716         3.013727         1.439291
 C        -0.336202         2.376162         1.698854
 H         0.057802        -0.464597         0.689482
 H        -2.322068         0.011394        -0.104354
 H        -2.848549         0.980153         1.233298
 H        -1.319814         2.187887        -1.300500
 H        -2.277974         3.588805         1.091244
 H        -0.588159         4.836661        -0.638852
 H        -0.443968         5.226566         1.064872
 H         1.862318         2.248086         1.137598
 H         1.485766         3.593497         2.286657
 H        -0.634564         2.261941         2.810100
