19
Iteration:  2348
 O         0.350555         0.383536         0.283195
 C        -0.681150         1.223109         0.684618
 C        -2.180633         0.871030         0.553763
 C        -1.543287         2.092416        -0.215757
 C        -1.316368         3.250058         0.750730
 C        -0.374625         4.334914         0.213727
 O         0.951666         3.864920         0.278283
 C         1.030044         3.036655         1.445182
 C        -0.451470         2.291447         1.690662
 H        -0.069509        -0.267441        -0.223244
 H        -2.423110         0.032429        -0.127675
 H        -2.950710         1.048789         1.211695
 H        -1.713279         2.281898        -1.294747
 H        -2.376680         3.695561         1.107608
 H        -0.554863         4.809986        -0.724369
 H        -0.485339         5.156346         0.984182
 H         1.643258         2.207134         1.000130
 H         1.432598         3.475273         2.348401
 H        -0.509428         2.164428         2.754104
