19
Iteration:  1204charge 0 multiplicity 1
 O         0.202683         0.172998         0.254263
 C        -0.666494         1.233968         0.654234
 C        -2.150737         0.916259         0.535988
 C        -1.544208         2.107759        -0.228651
 C        -1.296742         3.209884         0.759649
 C        -0.494914         4.391610         0.221253
 O         0.888123         4.004233         0.396503
 C         1.084302         2.988430         1.344971
 C        -0.261831         2.389519         1.608963
 H         0.060650        -0.571965         0.961109
 H        -2.095768         0.003150        -0.127699
 H        -2.875372         1.111845         1.341400
 H        -1.662481         2.242041        -1.294474
 H        -2.215150         3.703920         1.306308
 H        -0.527501         4.593282        -0.831872
 H        -0.581926         5.292529         0.926114
 H         1.887463         2.213306         1.071566
 H         1.489189         3.345621         2.316302
 H        -0.356989         2.159226         2.649240
