19
Iteration:   797charge 0 multiplicity 1
 O         0.402127         0.437479         0.110128
 C        -0.667528         1.178917         0.615557
 C        -2.272772         0.940877         0.612267
 C        -1.609108         2.049019        -0.131498
 C        -1.358384         3.321642         0.822700
 C        -0.365811         4.313466         0.131403
 O         0.991133         3.835384         0.304444
 C         0.977897         2.967870         1.464236
 C        -0.391373         2.321726         1.694406
 H         0.823342         0.000202         0.831275
 H        -2.553262         0.145393        -0.009050
 H        -2.795373         0.920236         1.533116
 H        -1.757523         2.141658        -1.192332
 H        -2.240879         3.697071         1.285043
 H        -0.644387         4.225531        -0.943151
 H        -0.505797         5.375400         0.503618
 H         1.705657         2.203168         1.258867
 H         1.180248         3.583040         2.355399
 H        -0.643314         1.998100         2.718672
