19
Iteration:  2010
 O         0.240325         0.103183         0.299976
 C        -0.651927         1.170084         0.577412
 C        -2.114530         0.877830         0.539955
 C        -1.666435         2.105054        -0.229073
 C        -1.391119         3.375494         0.698698
 C        -0.361198         4.464835         0.260127
 O         0.961577         3.925173         0.321652
 C         1.003275         3.108862         1.477028
 C        -0.275362         2.313459         1.555687
 H         0.085564        -0.603020         0.979048
 H        -2.192511        -0.025088        -0.128419
 H        -2.697850         0.849624         1.459409
 H        -1.796416         2.174689        -1.305443
 H        -2.333050         3.518458         1.164229
 H        -0.509251         5.040072        -0.667191
 H        -0.371081         5.210497         1.120471
 H         1.858556         2.424920         1.385379
 H         1.290589         3.740827         2.349174
 H        -0.466481         2.001814         2.621343
