19
Iteration:  1429charge 0 multiplicity 1
 O         0.144824         0.090545         0.140560
 C        -0.689494         1.115740         0.669900
 C        -2.176597         0.830455         0.581881
 C        -1.473322         2.060316        -0.171746
 C        -1.218329         3.318554         0.744456
 C        -0.388816         4.459964         0.234374
 O         0.941798         4.092997         0.309098
 C         1.016896         3.108182         1.424910
 C        -0.386907         2.316720         1.667945
 H         0.273281        -0.657413         0.882055
 H        -2.351201        -0.007997        -0.130595
 H        -3.056445         0.935167         1.365499
 H        -1.506262         2.129170        -1.278939
 H        -2.092893         3.674388         1.236119
 H        -0.533253         4.780508        -0.881159
 H        -0.506567         5.376466         0.900169
 H         1.861244         2.422371         1.193701
 H         1.422926         3.465023         2.425482
 H        -0.489783         2.202782         2.755621
