19
Iteration:  3767
 O         0.173506         0.074650         0.192156
 C        -0.689806         1.164552         0.611290
 C        -2.136953         0.926372         0.563536
 C        -1.615352         2.033993        -0.233677
 C        -1.246577         3.286152         0.593228
 C        -0.260524         4.320488        -0.017761
 O         0.877447         4.249492         0.894052
 C         1.025981         2.979616         1.446214
 C        -0.429384         2.338123         1.529297
 H         1.168877         0.343946         0.444455
 H        -2.500084         0.159450        -0.179302
 H        -2.811140         1.137948         1.471177
 H        -1.645644         1.775509        -1.322060
 H        -2.138388         3.631990         1.124527
 H         0.127260         3.995837        -1.044357
 H        -0.681463         5.262207         0.058773
 H         1.684185         2.349821         0.680997
 H         1.587874         2.901938         2.440872
 H        -0.774721         2.444139         2.548426
