19
Iteration:  3629
 O         0.186539        -0.013327         0.319172
 C        -0.647231         1.109325         0.616398
 C        -2.174248         0.969389         0.604784
 C        -1.583770         2.009181        -0.270363
 C        -1.299250         3.269179         0.517605
 C        -0.295118         4.380727         0.044976
 O         0.870177         4.304333         0.906561
 C         1.039370         2.991985         1.329676
 C        -0.381792         2.335313         1.495793
 H         0.900925         0.332242        -0.174423
 H        -2.681376         0.051540         0.249640
 H        -2.542947         1.278446         1.595590
 H        -1.479581         1.701283        -1.309291
 H        -2.194248         3.734389         0.958976
 H         0.098541         4.249948        -1.012599
 H        -0.877505         5.375292         0.286532
 H         1.579448         2.541301         0.365558
 H         1.616356         2.935677         2.279519
 H        -0.620342         2.140337         2.595504
