19
Iteration:  4385
 O         0.147204         0.010067         0.198843
 C        -0.697662         1.169434         0.617118
 C        -2.221449         0.916574         0.422737
 C        -1.526378         2.137926        -0.329691
 C        -1.256519         3.185365         0.676908
 C        -0.280029         4.265476         0.091823
 O         0.842533         4.357202         0.859352
 C         1.053021         3.063153         1.416531
 C        -0.314531         2.334385         1.630334
 H         0.453548        -0.390866         0.950650
 H        -2.261385        -0.068610        -0.168460
 H        -3.060992         0.891445         1.313446
 H        -1.421270         2.331825        -1.430316
 H        -2.329217         3.486288         1.118459
 H         0.134220         3.874217        -0.855469
 H        -0.656611         5.197816        -0.313770
 H         1.658352         2.466898         0.686925
 H         1.722985         3.061178         2.321311
 H        -0.550815         2.193777         2.644622
