19
Iteration:  2810charge 0 multiplicity 1
 O         0.380478         0.353585         0.269520
 C        -0.684483         1.152053         0.671212
 C        -2.096096         0.870973         0.490458
 C        -1.643234         2.146835        -0.152722
 C        -1.409974         3.307950         0.753112
 C        -0.378021         4.315359         0.208902
 O         0.948210         3.889568         0.353505
 C         1.022702         2.905526         1.414701
 C        -0.413176         2.431628         1.613735
 H         0.209389        -0.590010         0.672828
 H        -2.202088         0.004173        -0.145861
 H        -2.849428         0.818746         1.297718
 H        -1.624824         2.268520        -1.237274
 H        -2.348828         3.812389         1.233950
 H        -0.412504         4.678170        -0.889883
 H        -0.547415         5.260210         0.787270
 H         1.573759         2.218986         0.942124
 H         1.620002         3.379286         2.237879
 H        -0.834844         2.472343         2.632359
