19
Iteration:  1064charge 0 multiplicity 1
 O         0.364206         0.370244         0.066854
 C        -0.661911         1.221410         0.640764
 C        -2.110396         0.967294         0.696657
 C        -1.596782         2.133393        -0.155166
 C        -1.326422         3.295371         0.741252
 C        -0.468561         4.341669         0.133588
 O         0.965111         3.814846         0.365842
 C         0.982090         2.944038         1.482047
 C        -0.392492         2.341670         1.631157
 H         0.396273        -0.470014         0.586559
 H        -2.429587         0.042344         0.159754
 H        -2.649047         1.254872         1.623171
 H        -1.894637         2.159285        -1.174703
 H        -2.219103         3.511428         1.256312
 H        -0.571159         4.453914        -0.926611
 H        -0.608276         5.294702         0.623296
 H         1.773879         2.079371         1.363790
 H         1.347924         3.468116         2.363005
 H        -0.904374         2.085807         2.641213
