19
Iteration:  1949charge 0 multiplicity 1
 O         0.371112         0.378914         0.258977
 C        -0.727088         1.264772         0.663986
 C        -2.176638         0.970112         0.487529
 C        -1.515955         2.127019        -0.231780
 C        -1.296850         3.257322         0.865000
 C        -0.451592         4.372574         0.206863
 O         0.899945         3.761884         0.224392
 C         1.034296         2.935702         1.472773
 C        -0.413921         2.348153         1.687136
 H         0.532646        -0.496428         0.830840
 H        -2.283589         0.183256        -0.236862
 H        -2.959347         1.120349         1.260649
 H        -1.352050         2.136610        -1.311317
 H        -2.184518         3.630721         1.384840
 H        -0.808376         4.424881        -0.812239
 H        -0.511587         5.380068         0.670047
 H         1.541421         2.099449         1.086681
 H         1.503415         3.371871         2.323303
 H        -0.629825         2.365001         2.739400
