19
Iteration:  3132
 O         0.336509         0.258668         0.315897
 C        -0.652210         1.223345         0.599959
 C        -2.125883         0.855845         0.282272
 C        -1.545501         2.138883        -0.224379
 C        -1.361716         3.369728         0.871777
 C        -0.378233         4.373627         0.279114
 O         0.933043         3.778825         0.292188
 C         0.946022         3.119351         1.545336
 C        -0.374672         2.325739         1.631514
 H        -0.244723        -0.565317         0.375709
 H        -2.143998         0.083464        -0.509152
 H        -2.795006         0.725565         1.140428
 H        -1.519087         2.154118        -1.348764
 H        -2.230914         3.646285         1.619333
 H        -0.565699         4.467921        -0.826316
 H        -0.267409         5.403246         0.721297
 H         1.768648         2.544431         1.633898
 H         0.924893         3.746574         2.484834
 H        -0.716591         2.089894         2.641497
