19
Iteration:  1444
 O         0.184607         0.074146         0.244151
 C        -0.673902         1.110834         0.638638
 C        -2.156291         0.918975         0.506264
 C        -1.605473         2.083904        -0.180681
 C        -1.336510         3.238271         0.766217
 C        -0.435043         4.548689         0.269915
 O         0.991194         3.995853         0.350257
 C         1.075437         3.050904         1.431847
 C        -0.238981         2.361039         1.527975
 H         0.413403        -0.330232         1.072091
 H        -2.454770         0.145370        -0.192663
 H        -2.747852         0.970646         1.402117
 H        -1.692492         2.118274        -1.260420
 H        -2.245394         3.583017         1.316753
 H        -0.721890         4.775336        -0.818032
 H        -0.670193         5.409507         0.866182
 H         1.866669         2.365091         1.164270
 H         1.146932         3.686508         2.275987
 H        -0.643167         2.175640         2.626447
