19
Iteration:  2818
 O         0.381192         0.319096         0.241165
 C        -0.698035         1.205733         0.700009
 C        -2.083814         0.832692         0.517805
 C        -1.657309         2.144148        -0.205734
 C        -1.309274         3.294810         0.762503
 C        -0.390317         4.370408         0.188330
 O         0.949054         3.881974         0.334951
 C         0.998401         2.916673         1.389335
 C        -0.487739         2.420182         1.653876
 H         0.388180        -0.438660         0.985034
 H        -2.261707         0.178421        -0.317250
 H        -2.803867         0.795424         1.285597
 H        -1.709255         2.267293        -1.270915
 H        -2.182064         3.786665         1.333907
 H        -0.531499         4.683266        -0.814065
 H        -0.424725         5.310223         0.853062
 H         1.707191         2.105085         1.031027
 H         1.343826         3.419972         2.406721
 H        -0.660090         2.235817         2.702440
