19
Iteration:  2838charge 0 multiplicity 1
 O         0.291171         0.321683         0.246599
 C        -0.685523         1.173115         0.593255
 C        -2.163675         0.896985         0.515618
 C        -1.525653         2.095490        -0.190012
 C        -1.368554         3.313359         0.778851
 C        -0.376953         4.408468         0.262561
 O         0.936202         3.816996         0.249892
 C         0.942826         3.025656         1.512883
 C        -0.346759         2.276051         1.599540
 H         0.776219         0.113171         1.090043
 H        -2.282369        -0.042506        -0.032075
 H        -2.835044         1.024474         1.344811
 H        -1.574560         2.198776        -1.259683
 H        -2.281402         3.666501         1.185147
 H        -0.504445         4.713466        -0.728515
 H        -0.369987         5.355692         0.850675
 H         1.916031         2.407023         1.277299
 H         1.086744         3.737750         2.303424
 H        -0.669088         2.106157         2.635056
