19
Iteration:    69charge 0 multiplicity 1
 O         0.331250         0.185386         0.356148
 C        -0.624409         1.124124         0.547313
 C        -2.177193         1.051053         0.625866
 C        -1.516857         2.054057        -0.258339
 C        -1.301698         3.202112         0.783554
 C        -0.485206         4.463493         0.298514
 O         0.840264         4.023258         0.339739
 C         1.051224         2.966719         1.329482
 C        -0.287690         2.257730         1.496265
 H         0.180789        -0.489832         1.106505
 H        -2.897843         0.372738         0.145779
 H        -2.699397         1.469454         1.547301
 H        -1.950236         2.259406        -1.261913
 H        -2.197280         3.490452         1.222076
 H        -0.700439         4.738430        -0.837040
 H        -0.723199         5.395143         0.858163
 H         1.929088         2.379178         0.913457
 H         1.507425         3.472033         2.210300
 H        -0.474403         1.915088         2.575985
