19
Iteration:  4311
 O         0.263308         0.206807         0.292758
 C        -0.769297         1.092921         0.670872
 C        -2.188237         0.819316         0.620240
 C        -1.432070         1.945145        -0.371591
 C        -1.209164         3.337310         0.465847
 C        -0.273519         4.417275         0.119435
 O         0.854209         4.257418         1.093979
 C         0.971178         2.879887         1.166240
 C        -0.426315         2.390027         1.489592
 H        -0.045015        -0.713868         0.541683
 H        -2.706976         0.032174         0.022138
 H        -2.876005         1.230808         1.429083
 H        -1.550991         1.908246        -1.469865
 H        -2.201698         3.734911         0.728044
 H         0.064144         4.423135        -0.929120
 H        -0.644867         5.536764         0.125816
 H         1.505204         2.403875         0.335042
 H         1.571168         2.736225         1.993280
 H        -0.454962         2.481878         2.627106
