19
Iteration:   947
 O         0.333289         0.391918         0.313367
 C        -0.719787         1.202418         0.771251
 C        -2.159566         0.897434         0.493241
 C        -1.506141         2.062880        -0.247185
 C        -1.321268         3.200224         0.696617
 C        -0.388015         4.451253         0.441193
 O         0.876015         3.884883         0.125679
 C         1.035379         2.904165         1.343602
 C        -0.373296         2.379914         1.663560
 H        -0.025207        -0.553805         0.397181
 H        -2.227208         0.022652        -0.133753
 H        -2.939801         1.109364         1.160840
 H        -1.479148         1.931453        -1.294324
 H        -2.227871         3.514748         1.340537
 H        -0.707129         5.138672        -0.393569
 H        -0.493895         5.051206         1.407182
 H         1.648317         2.145310         1.126137
 H         1.510061         3.404427         2.208624
 H        -0.600690         2.406436         2.691719
