19
Iteration:  1259
 O         0.215527         0.231843         0.195455
 C        -0.678726         1.179645         0.628768
 C        -2.084083         0.816988         0.612760
 C        -1.672889         2.029662        -0.207814
 C        -1.382943         3.255516         0.741221
 C        -0.341785         4.462461         0.269841
 O         1.016157         3.935107         0.316174
 C         1.104252         3.083457         1.465307
 C        -0.413973         2.377692         1.562983
 H         0.075782        -0.608701         0.825309
 H        -2.364386         0.039281        -0.084922
 H        -2.798363         0.885449         1.432503
 H        -1.669980         1.957999        -1.319045
 H        -2.224040         3.844949         1.290266
 H        -0.525104         4.914812        -0.712362
 H        -0.509553         5.386187         0.967075
 H         1.841295         2.326864         1.117391
 H         1.262302         3.719090         2.315639
 H        -0.539454         2.171630         2.589630
