19
Iteration:  2669
 O         0.297129         0.330020         0.326364
 C        -0.668457         1.233650         0.666943
 C        -2.065123         0.843753         0.548235
 C        -1.676636         2.110209        -0.241719
 C        -1.383001         3.309986         0.797882
 C        -0.351427         4.368162         0.204077
 O         0.953191         3.826600         0.277063
 C         0.981474         2.980526         1.436176
 C        -0.421003         2.333830         1.620354
 H         0.969530         0.675904        -0.223329
 H        -2.179846        -0.173099         0.155354
 H        -2.586192         0.895814         1.537717
 H        -1.762612         2.066630        -1.313748
 H        -2.162674         3.899903         1.066927
 H        -0.610992         4.701122        -0.881217
 H        -0.426258         5.304985         0.839461
 H         1.705040         2.035427         1.211054
 H         1.173404         3.588363         2.339751
 H        -0.507987         2.108030         2.722361
