19
Iteration:  4115
 O         0.191883         0.114257         0.151096
 C        -0.708794         1.094557         0.586716
 C        -2.156711         0.953351         0.647887
 C        -1.532713         1.960787        -0.393135
 C        -1.256685         3.281896         0.561086
 C        -0.231661         4.279798         0.034001
 O         0.864328         4.340427         0.965734
 C         1.001734         3.037176         1.452392
 C        -0.364554         2.348396         1.531607
 H        -0.095848        -0.728822         0.642658
 H        -2.581769         0.094322         0.155993
 H        -2.598729         1.217587         1.525925
 H        -1.656722         1.808091        -1.471148
 H        -2.176079         3.661143         1.073287
 H         0.155588         3.679432        -0.784122
 H        -0.663593         5.295884        -0.217150
 H         1.716462         2.627889         0.683956
 H         1.489113         3.013062         2.444780
 H        -0.885223         2.374252         2.536122
