19
Iteration:  1308charge 0 multiplicity 1
 O         0.466778         0.435005         0.116868
 C        -0.649750         1.185780         0.687714
 C        -2.216860         1.011958         0.548818
 C        -1.448343         2.144019        -0.155704
 C        -1.342373         3.292004         0.838745
 C        -0.371045         4.344287         0.188136
 O         0.831127         3.668021         0.214861
 C         0.900408         2.964766         1.477396
 C        -0.430192         2.322438         1.753090
 H         0.537233        -0.342926         0.564996
 H        -2.706490         0.099177         0.065154
 H        -2.704204         1.314755         1.482966
 H        -1.492847         2.209136        -1.209693
 H        -2.233218         3.723326         1.186021
 H        -0.744534         4.443349        -0.904912
 H        -0.270295         5.360807         0.559068
 H         1.670282         2.253445         1.236210
 H         1.181320         3.716342         2.244687
 H        -0.691215         2.161894         2.893313
