19
Iteration:  3318charge 0 multiplicity 1
 O         0.420173         0.350691         0.381327
 C        -0.686930         1.234315         0.670043
 C        -2.111729         0.869437         0.456843
 C        -1.587682         2.098281        -0.257562
 C        -1.373994         3.294197         0.676083
 C        -0.377902         4.367092         0.210483
 O         0.899998         3.789118         0.411487
 C         0.955925         2.877208         1.445865
 C        -0.458823         2.403494         1.630388
 H         1.024193         0.939203        -0.248181
 H        -2.309801         0.185193        -0.351585
 H        -2.839863         1.090584         1.248869
 H        -1.912580         2.310153        -1.276035
 H        -2.210029         3.660509         1.137233
 H        -0.392829         4.794392        -0.856835
 H        -0.555999         5.230128         0.923402
 H         1.701166         2.134766         1.248704
 H         1.442214         3.289682         2.344426
 H        -0.765073         2.165380         2.658995
