19
Iteration:  2214charge 0 multiplicity 1
 O         0.379678         0.287221         0.242302
 C        -0.644551         1.199712         0.531025
 C        -2.100654         0.985305         0.661383
 C        -1.618913         2.077311        -0.262853
 C        -1.384912         3.289777         0.734072
 C        -0.446570         4.406745         0.252180
 O         1.004278         3.851773         0.316568
 C         0.985184         2.981600         1.494618
 C        -0.417985         2.314530         1.564936
 H         0.189072        -0.564767         0.535033
 H        -2.411740         0.027359         0.240144
 H        -2.636379         1.343272         1.577182
 H        -1.852812         2.264907        -1.271418
 H        -2.412612         3.693233         1.224621
 H        -0.493435         4.830593        -0.793646
 H        -0.712681         5.308566         0.947880
 H         1.655303         2.039719         1.352843
 H         1.243787         3.537432         2.411967
 H        -0.551318         2.010437         2.611261
