19
Iteration:  3565
 O         0.204354         0.065153         0.450771
 C        -0.704501         1.144295         0.629388
 C        -2.156610         0.964750         0.432220
 C        -1.566783         2.064902        -0.272472
 C        -1.309247         3.237570         0.696558
 C        -0.340758         4.242981         0.048629
 O         0.886679         4.345515         0.841004
 C         1.043260         2.940806         1.191982
 C        -0.352716         2.291599         1.563040
 H         0.962365         0.430081         0.107403
 H        -2.479876         0.092694        -0.129981
 H        -2.662542         1.108893         1.344021
 H        -1.626345         2.274058        -1.358440
 H        -2.162964         3.788243         1.014127
 H        -0.109932         3.950863        -0.966356
 H        -0.702415         5.373892         0.122777
 H         1.525155         2.347174         0.363724
 H         1.580704         2.948462         2.222193
 H        -0.529624         2.250067         2.657358
