19
Iteration:  4843
 O         0.253560         0.252017         0.220420
 C        -0.715716         1.146955         0.605530
 C        -2.123398         0.879234         0.532513
 C        -1.530915         2.092116        -0.286503
 C        -1.310078         3.197808         0.690219
 C        -0.376726         4.312226         0.115543
 O         0.966114         4.172920         0.592045
 C         0.994485         2.992989         1.467851
 C        -0.420982         2.302653         1.641768
 H         0.268281        -0.540189         0.875225
 H        -2.252519         0.120678        -0.263690
 H        -2.916970         1.093061         1.090650
 H        -1.609230         2.103443        -1.403927
 H        -2.181308         3.628162         1.249500
 H        -0.347715         4.240676        -1.059382
 H        -0.734763         5.279979         0.351213
 H         1.898495         2.395381         1.265460
 H         1.428111         3.429695         2.493824
 H        -0.656173         2.145213         2.695377
