19
Iteration:  1042charge 0 multiplicity 1
 O         0.303709         0.311408        -0.009584
 C        -0.651143         1.148509         0.631322
 C        -2.104028         0.937511         0.792003
 C        -1.532295         2.028822        -0.195898
 C        -1.361437         3.323728         0.666046
 C        -0.346174         4.372482         0.208024
 O         0.893475         3.877891         0.358131
 C         0.950432         3.013381         1.497130
 C        -0.396541         2.371113         1.662352
 H         0.405205        -0.573239         0.478836
 H        -2.665453         0.154194         0.261154
 H        -2.501708         1.370076         1.749943
 H        -1.520532         1.967397        -1.250444
 H        -2.257633         3.691351         1.091269
 H        -0.428383         4.572991        -0.848633
 H        -0.456309         5.293304         0.771636
 H         1.813213         2.221738         1.345602
 H         1.207435         3.468323         2.447986
 H        -0.844816         2.234341         2.723618
