19
Iteration:  1016charge 0 multiplicity 1
 O         0.195656         0.305701         0.140116
 C        -0.678553         1.228684         0.598237
 C        -2.179014         0.848723         0.593246
 C        -1.690185         1.960391        -0.172082
 C        -1.328510         3.233230         0.756545
 C        -0.347514         4.337021         0.265995
 O         1.019106         3.914021         0.285397
 C         1.025895         3.142249         1.515112
 C        -0.251772         2.392289         1.559796
 H         0.391150        -0.434155         0.865665
 H        -2.266216         0.093771        -0.198858
 H        -2.914994         0.862800         1.433496
 H        -1.841482         2.124798        -1.282536
 H        -2.239851         3.586687         1.403216
 H        -0.559920         4.746499        -0.752926
 H        -0.386991         5.223242         0.969656
 H         1.932490         2.510819         1.675830
 H         1.004853         3.690045         2.496524
 H        -0.546166         2.144113         2.656656
