19
Iteration:  3040
 O         0.282960         0.271294         0.336721
 C        -0.683933         1.289344         0.570773
 C        -2.078393         0.862386         0.518486
 C        -1.531965         2.126585        -0.268949
 C        -1.422915         3.311944         0.691665
 C        -0.387343         4.412409         0.222015
 O         0.983264         3.822426         0.419104
 C         0.945259         2.972231         1.531539
 C        -0.411538         2.327163         1.620846
 H         0.526595         0.311271        -0.640757
 H        -2.027031        -0.078372        -0.042206
 H        -2.725316         0.836452         1.412532
 H        -1.503059         2.173250        -1.327575
 H        -2.341319         3.748850         1.151504
 H        -0.513720         4.830605        -0.838515
 H        -0.580041         5.266222         0.889119
 H         1.622075         2.037050         1.228237
 H         1.544439         3.461403         2.321928
 H        -0.802685         2.061645         2.615630
