19
Iteration:   946charge 0 multiplicity 1
 O         0.343089         0.389962         0.316502
 C        -0.729875         1.201055         0.766227
 C        -2.153730         0.890992         0.491353
 C        -1.514231         2.061663        -0.239580
 C        -1.319682         3.200483         0.696283
 C        -0.380791         4.445184         0.448251
 O         0.878242         3.889300         0.123532
 C         1.036154         2.914545         1.335237
 C        -0.383766         2.383439         1.662092
 H        -0.054861        -0.580983         0.412279
 H        -2.238388         0.054871        -0.164968
 H        -2.989024         1.099085         1.159668
 H        -1.497872         1.913808        -1.286264
 H        -2.183100         3.540323         1.333148
 H        -0.694805         5.134752        -0.369714
 H        -0.500633         5.057825         1.416509
 H         1.676135         2.111657         1.127780
 H         1.479497         3.388648         2.226003
 H        -0.572810         2.422448         2.669230
