19
Iteration:   488
 O         0.369516         0.463810         0.009358
 C        -0.615444         1.224685         0.643877
 C        -2.231839         1.005391         0.714720
 C        -1.602681         2.015920        -0.144843
 C        -1.306801         3.204883         0.806325
 C        -0.402732         4.290417         0.131437
 O         0.919718         3.747939         0.335333
 C         0.953179         3.053661         1.512626
 C        -0.340169         2.351224         1.660959
 H         0.412601        -0.457476         0.497727
 H        -2.573786         0.171423         0.157737
 H        -2.921621         1.377420         1.490658
 H        -1.477625         2.047420        -1.220494
 H        -2.246442         3.606297         1.183794
 H        -0.500236         4.417560        -1.016373
 H        -0.542988         5.341144         0.523835
 H         1.699148         2.323303         1.355618
 H         1.296772         3.633279         2.425676
 H        -0.601172         2.171968         2.669933
