19
Iteration:  1792charge 0 multiplicity 1
 O         0.270147         0.273041         0.159934
 C        -0.615921         1.187915         0.703713
 C        -2.161522         0.989680         0.635700
 C        -1.446196         2.113320        -0.282774
 C        -1.336400         3.246575         0.692140
 C        -0.467995         4.410995         0.281107
 O         0.915066         3.849382         0.329100
 C         1.037335         2.951517         1.427092
 C        -0.397014         2.367928         1.633419
 H         0.362926        -0.512554         0.582035
 H        -2.525510         0.052487         0.197843
 H        -2.877045         1.607056         1.343118
 H        -1.401445         1.885339        -1.368249
 H        -2.265638         3.561640         1.264056
 H        -0.740831         4.862347        -0.734024
 H        -0.464193         5.286919         1.006112
 H         1.609228         2.072739         1.268432
 H         1.222455         3.532083         2.353846
 H        -0.616113         2.251418         2.660450
