19
Iteration:  1434
 O         0.150819         0.067549         0.179412
 C        -0.685588         1.116505         0.645286
 C        -2.189011         0.835239         0.569887
 C        -1.518724         2.056628        -0.160870
 C        -1.224858         3.297417         0.751777
 C        -0.418452         4.526987         0.239709
 O         0.969996         4.073596         0.304214
 C         1.026692         3.090087         1.442100
 C        -0.350637         2.332318         1.638140
 H         0.353837        -0.519763         0.843044
 H        -2.368751         0.126565        -0.222334
 H        -2.906370         0.875174         1.317849
 H        -1.493551         2.125274        -1.235925
 H        -2.186722         3.621056         1.252898
 H        -0.492618         4.786607        -0.812513
 H        -0.570913         5.415138         0.829933
 H         1.838574         2.412919         1.178903
 H         1.393063         3.559684         2.345749
 H        -0.563841         2.051593         2.737294
