19
Iteration:  1041
 O         0.303170         0.305540        -0.008037
 C        -0.663340         1.149826         0.637043
 C        -2.101414         0.927575         0.785111
 C        -1.539988         2.036298        -0.198877
 C        -1.355464         3.323361         0.661430
 C        -0.344438         4.365344         0.211988
 O         0.899206         3.880943         0.357324
 C         0.953298         3.022590         1.494344
 C        -0.395669         2.366994         1.664082
 H         0.406135        -0.531266         0.456753
 H        -2.654255         0.131804         0.287965
 H        -2.508650         1.385401         1.760212
 H        -1.519099         1.974289        -1.259139
 H        -2.281360         3.674658         1.102400
 H        -0.430838         4.597772        -0.836502
 H        -0.466051         5.293161         0.782371
 H         1.840142         2.230083         1.357030
 H         1.229846         3.500853         2.437323
 H        -0.877826         2.230794         2.740607
