19
Iteration:   227charge 0 multiplicity 1
 O         0.333566         0.373109        -0.030257
 C        -0.639400         1.231989         0.631605
 C        -2.129889         0.967724         0.751675
 C        -1.517762         2.128435        -0.137889
 C        -1.313064         3.282052         0.772952
 C        -0.404880         4.234044         0.122736
 O         0.912640         3.782482         0.313035
 C         0.930594         3.029190         1.532225
 C        -0.369022         2.349502         1.689568
 H         0.338336        -0.463932         0.544230
 H        -2.500115         0.122458         0.211165
 H        -2.709888         1.246307         1.603542
 H        -1.832623         2.216361        -1.190972
 H        -2.299603         3.691817         1.083063
 H        -0.675789         4.219409        -0.935305
 H        -0.565935         5.243316         0.584184
 H         1.801391         2.425970         1.521269
 H         1.084523         3.772107         2.388836
 H        -0.640760         2.135328         2.790775
