19
Iteration:   117charge 0 multiplicity 1
 O         0.217629         0.256496         0.201583
 C        -0.710778         1.239594         0.755977
 C        -2.151546         0.855274         0.512659
 C        -1.502660         2.062230        -0.239069
 C        -1.300351         3.213546         0.779183
 C        -0.430874         4.408640         0.339467
 O         0.873798         3.838120         0.220428
 C         1.026055         3.149001         1.349155
 C        -0.260782         2.395408         1.683234
 H        -0.006849        -0.548784         0.532262
 H        -2.107896        -0.147376         0.090761
 H        -2.970738         0.863716         1.224769
 H        -1.322605         1.928183        -1.280334
 H        -2.190870         3.494670         1.393843
 H        -0.696160         4.886555        -0.627209
 H        -0.470552         5.257317         1.089485
 H         1.838001         2.392405         1.229499
 H         1.494254         3.836374         2.122355
 H        -0.450592         2.413317         2.787144
