19
Iteration:  3979
 O         0.192230         0.140588         0.324492
 C        -0.685960         1.142793         0.611634
 C        -2.136970         0.966287         0.564952
 C        -1.475323         1.977175        -0.432609
 C        -1.233187         3.257339         0.509691
 C        -0.390550         4.488990         0.166421
 O         0.856237         4.195408         0.840808
 C         1.007770         2.859132         1.415766
 C        -0.330329         2.330909         1.439441
 H         0.515403        -0.293027         1.210164
 H        -2.676388         0.162702        -0.010379
 H        -2.611400         1.233755         1.568656
 H        -1.748170         2.000070        -1.497207
 H        -2.083268         3.567943         1.033065
 H        -0.051064         4.415549        -0.852815
 H        -0.887007         5.419233         0.527282
 H         1.622747         2.352842         0.668124
 H         1.389714         2.955496         2.404760
 H        -0.702061         2.317877         2.500200
