19
Iteration:  1890charge 0 multiplicity 1
 O         0.333159         0.393812         0.138334
 C        -0.639683         1.208787         0.642602
 C        -2.122198         1.019156         0.680061
 C        -1.522105         2.109108        -0.248922
 C        -1.365287         3.237397         0.733460
 C        -0.379931         4.307277         0.261392
 O         0.931340         3.722124         0.276513
 C         0.952905         3.035530         1.476202
 C        -0.408911         2.339743         1.653729
 H         0.165889        -0.436413         0.527121
 H        -2.565136         0.205918         0.066946
 H        -2.854287         1.281013         1.470311
 H        -1.574257         1.951105        -1.334575
 H        -2.247155         3.801875         1.131455
 H        -0.523814         4.671130        -0.789134
 H        -0.441777         5.192075         0.909986
 H         1.836967         2.388373         1.362996
 H         1.048137         3.591733         2.411426
 H        -0.637494         2.185913         2.706253
