19
Iteration:  2380
 O         0.351156         0.197736         0.363517
 C        -0.573076         1.216966         0.506815
 C        -2.161016         0.933931         0.563892
 C        -1.607605         2.178998        -0.206630
 C        -1.339092         3.295956         0.857240
 C        -0.384748         4.380719         0.161875
 O         0.898951         3.821034         0.297711
 C         0.939843         3.095586         1.515798
 C        -0.346444         2.262745         1.598509
 H         0.153309         0.005470        -0.609415
 H        -2.365930         0.041677        -0.081505
 H        -2.874010         1.153561         1.317701
 H        -1.990639         2.364718        -1.229814
 H        -2.315664         3.754225         1.419026
 H        -0.495627         4.513126        -0.885954
 H        -0.379841         5.358373         0.662413
 H         1.896247         2.444241         1.261323
 H         1.171300         3.604567         2.451585
 H        -0.519361         1.849338         2.641959
