19
Iteration:  2534
 O         0.311172         0.285991         0.197140
 C        -0.596749         1.217130         0.703825
 C        -2.164334         1.022908         0.614528
 C        -1.498867         2.050456        -0.253988
 C        -1.363716         3.238521         0.691281
 C        -0.420218         4.327349         0.270194
 O         0.913865         3.808912         0.262568
 C         0.933089         2.997423         1.510764
 C        -0.389312         2.383070         1.651061
 H         0.902198         0.693749        -0.398556
 H        -2.486915         0.075194         0.292882
 H        -2.775756         1.155815         1.470896
 H        -1.663328         1.871904        -1.326131
 H        -2.161459         3.585605         1.236248
 H        -0.561632         4.739209        -0.703716
 H        -0.457063         5.230103         0.962320
 H         1.596639         2.031114         1.265419
 H         1.216464         3.618968         2.328767
 H        -0.598151         2.404914         2.751942
