19
Iteration:  2187
 O         0.381380         0.371153         0.252170
 C        -0.714518         1.198740         0.592359
 C        -2.144824         0.904372         0.590006
 C        -1.640237         2.107372        -0.185500
 C        -1.298712         3.268570         0.754027
 C        -0.410195         4.402384         0.200867
 O         0.953067         3.822525         0.327280
 C         1.021332         2.990079         1.464442
 C        -0.386881         2.302818         1.613055
 H         0.277940        -0.505930         0.499819
 H        -2.466617         0.242737        -0.255132
 H        -2.827526         0.953917         1.447778
 H        -1.932511         2.245827        -1.269479
 H        -2.120970         3.717979         1.201653
 H        -0.508317         4.643207        -0.858533
 H        -0.667031         5.288065         0.731950
 H         1.729572         2.238502         1.319922
 H         1.211538         3.606975         2.348714
 H        -0.540872         2.152449         2.700311
