19
Iteration:  1160
 O         0.370190         0.331905         0.284536
 C        -0.640611         1.216430         0.639314
 C        -2.210235         0.950129         0.565880
 C        -1.554116         2.076418        -0.242256
 C        -1.335394         3.253375         0.744493
 C        -0.381832         4.411984         0.359534
 O         0.886129         3.816624         0.250013
 C         0.980750         2.996441         1.352098
 C        -0.370023         2.325654         1.599392
 H         0.195618        -0.558607         0.791387
 H        -2.425060         0.090404        -0.129826
 H        -2.871161         1.246466         1.408749
 H        -1.584020         2.150571        -1.302744
 H        -2.277064         3.632281         1.339488
 H        -0.596806         4.882337        -0.590448
 H        -0.447743         5.066229         1.287748
 H         1.811618         2.271516         1.030161
 H         1.419879         3.576861         2.204711
 H        -0.575524         2.273876         2.669201
