19
Iteration:  3105
 O         0.354487         0.273947         0.330878
 C        -0.621709         1.204917         0.622832
 C        -2.042331         1.007566         0.431623
 C        -1.579865         2.201363        -0.308789
 C        -1.350041         3.257763         0.750584
 C        -0.401390         4.305035         0.257747
 O         0.902578         3.766911         0.353357
 C         0.936578         3.096854         1.533737
 C        -0.442492         2.338495         1.645998
 H        -0.008660        -0.297988        -0.433653
 H        -2.140567         0.097175        -0.164611
 H        -2.604018         0.954543         1.373406
 H        -1.794112         2.356472        -1.348969
 H        -2.153439         3.559866         1.301603
 H        -0.497628         4.547345        -0.824216
 H        -0.399814         5.182919         0.909051
 H         1.728747         2.227670         1.343729
 H         1.180024         3.522804         2.517676
 H        -0.794318         2.026721         2.667964
