19
Iteration:  4250charge 0 multiplicity 1
 O         0.221895         0.065117         0.442760
 C        -0.663694         1.171201         0.529005
 C        -2.201330         0.922634         0.419211
 C        -1.559207         2.145986        -0.274576
 C        -1.263635         3.298554         0.701371
 C        -0.364615         4.328584         0.056644
 O         0.842379         4.244497         0.833397
 C         1.056274         3.006472         1.358837
 C        -0.293585         2.264257         1.523242
 H        -0.196576        -0.651315        -0.021115
 H        -2.275658         0.209878        -0.395673
 H        -3.002263         0.764998         1.202120
 H        -1.377925         2.224050        -1.349116
 H        -2.250907         3.674288         1.143204
 H        -0.016368         4.011773        -1.009475
 H        -0.759919         5.299121        -0.029587
 H         1.857720         2.427563         0.782827
 H         1.535238         3.105778         2.437070
 H        -0.456625         2.113973         2.573865
