19
Iteration:  1426charge 0 multiplicity 1
 O         0.144813         0.106538         0.123718
 C        -0.693677         1.112092         0.699957
 C        -2.174013         0.841660         0.590868
 C        -1.448279         2.066173        -0.187991
 C        -1.232556         3.309083         0.738697
 C        -0.366755         4.421672         0.217802
 O         0.930838         4.090101         0.328150
 C         1.020787         3.107381         1.412534
 C        -0.385350         2.318891         1.678028
 H         0.167044        -0.585630         0.766772
 H        -2.338272        -0.068553        -0.031808
 H        -2.951627         1.003659         1.279208
 H        -1.523963         2.108168        -1.255969
 H        -2.145741         3.758930         1.250708
 H        -0.622745         4.713265        -0.726997
 H        -0.523223         5.318441         0.918008
 H         1.848264         2.406430         1.122405
 H         1.332417         3.505234         2.429213
 H        -0.484586         2.345569         2.703065
