19
Iteration:  3048
 O         0.312867         0.326371         0.324903
 C        -0.630628         1.271460         0.621560
 C        -2.118242         0.830130         0.546445
 C        -1.589763         2.092236        -0.288405
 C        -1.401964         3.299708         0.655688
 C        -0.412071         4.398230         0.269755
 O         1.022844         3.839375         0.411178
 C         0.979886         2.925366         1.515008
 C        -0.465687         2.423419         1.574654
 H         0.449619         0.177444        -0.618180
 H        -2.188334        -0.145917         0.049190
 H        -2.933232         0.860568         1.260970
 H        -1.498561         2.185819        -1.392110
 H        -2.220029         3.633947         1.137722
 H        -0.449328         4.845151        -0.671436
 H        -0.438308         5.241342         0.984040
 H         1.658636         2.041988         1.136502
 H         1.295986         3.314265         2.516818
 H        -0.773494         2.083478         2.580549
