19
Iteration:  2512charge 0 multiplicity 1
 O         0.223570         0.232482         0.215931
 C        -0.646344         1.175957         0.646887
 C        -2.069463         0.895686         0.581861
 C        -1.483590         2.125922        -0.169577
 C        -1.358197         3.294743         0.739388
 C        -0.393834         4.398621         0.235054
 O         0.878271         3.755492         0.200048
 C         0.996173         3.084285         1.554329
 C        -0.438055         2.346182         1.695593
 H         0.905868         0.722839        -0.421225
 H        -2.377941         0.040851         0.035818
 H        -2.783433         1.130191         1.334270
 H        -1.290164         2.068402        -1.230211
 H        -2.162553         3.777240         1.173322
 H        -0.622365         4.763668        -0.740172
 H        -0.445458         5.303728         0.909914
 H         1.944217         2.425575         1.282869
 H         1.154000         3.807593         2.331515
 H        -0.628236         2.056437         2.755724
