19
Iteration:   309charge 0 multiplicity 1
 O         0.248807         0.309199         0.225688
 C        -0.634265         1.259809         0.657226
 C        -2.064531         1.021264         0.608473
 C        -1.454848         2.101962        -0.211620
 C        -1.300259         3.225776         0.701802
 C        -0.475931         4.312512         0.271964
 O         0.796407         3.872503         0.296722
 C         1.076116         2.951882         1.375680
 C        -0.351482         2.350452         1.645766
 H        -0.061767        -0.567433         0.762048
 H        -2.393923         0.140967         0.086069
 H        -2.680086         1.389133         1.523749
 H        -1.324945         2.058229        -1.230587
 H        -2.331449         3.444090         1.143050
 H        -0.807870         4.897356        -0.611159
 H        -0.591225         5.043831         1.191634
 H         1.706868         2.170797         0.791949
 H         1.515961         3.537768         2.282361
 H        -0.680296         2.071326         2.594564
