19
Iteration:  4703charge 0 multiplicity 1
 O         0.189217         0.130247         0.378726
 C        -0.712828         1.165949         0.633736
 C        -2.229854         0.893532         0.507688
 C        -1.613261         2.055173        -0.291891
 C        -1.182375         3.253780         0.653039
 C        -0.280536         4.226160         0.006050
 O         0.747372         4.386032         0.939226
 C         1.123036         3.002319         1.290297
 C        -0.218344         2.311274         1.526350
 H         0.137484        -0.292865        -0.495827
 H        -2.274633        -0.141195        -0.045581
 H        -3.083153         1.063727         1.209925
 H        -1.769994         2.120617        -1.413570
 H        -1.933585         3.592484         1.306053
 H         0.040224         3.690642        -0.890530
 H        -0.781603         5.143313        -0.305876
 H         1.565605         2.448402         0.539029
 H         1.786560         2.947312         2.096394
 H        -0.696222         2.061942         2.533238
