19
Iteration:  2030
 O         0.260540         0.200653         0.293191
 C        -0.648226         1.210559         0.582957
 C        -2.147642         0.989238         0.563562
 C        -1.580692         2.094683        -0.252509
 C        -1.261318         3.196875         0.761999
 C        -0.440142         4.337068         0.248223
 O         0.955566         3.993977         0.350110
 C         1.035573         3.023361         1.431519
 C        -0.357322         2.307896         1.549987
 H         0.022249        -0.620113         0.888364
 H        -2.475074         0.150173        -0.102924
 H        -2.703433         1.342735         1.400083
 H        -1.807958         2.307202        -1.290872
 H        -2.221047         3.579155         1.280621
 H        -0.716151         4.502701        -0.816839
 H        -0.722816         5.307002         0.753483
 H         2.025435         2.398940         1.354980
 H         1.191584         3.496469         2.396217
 H        -0.635645         2.278967         2.700524
