19
Iteration:  4664charge 0 multiplicity 1
 O         0.225783         0.059339         0.298362
 C        -0.688263         1.101628         0.577528
 C        -2.144605         0.997236         0.690506
 C        -1.497554         1.953030        -0.346656
 C        -1.176474         3.228790         0.480138
 C        -0.342726         4.389722         0.083462
 O         0.799760         4.354031         0.958154
 C         1.013695         2.926101         1.352149
 C        -0.342194         2.325670         1.463291
 H        -0.339285        -0.710712        -0.052704
 H        -2.457505         0.074152         0.293182
 H        -2.678467         1.310476         1.609594
 H        -1.902342         1.780916        -1.333165
 H        -2.030927         3.726263         1.066300
 H        -0.026697         4.459234        -0.996955
 H        -0.795495         5.419054         0.145989
 H         1.597037         2.471814         0.451441
 H         1.710039         3.087529         2.192829
 H        -0.735532         2.482482         2.428065
