19
Iteration:  3489charge 0 multiplicity 1
 O         0.100664         0.052874         0.340558
 C        -0.649948         1.143319         0.649002
 C        -2.067541         0.945902         0.488797
 C        -1.563186         2.073541        -0.257283
 C        -1.336857         3.183227         0.626242
 C        -0.406527         4.319502         0.093029
 O         0.932317         4.238149         0.673275
 C         1.039805         3.025749         1.444548
 C        -0.309828         2.328922         1.491762
 H         1.061856         0.326794        -0.006021
 H        -2.500226         0.051158         0.035177
 H        -2.521210         1.280483         1.387624
 H        -1.692490         2.216840        -1.328224
 H        -2.182097         3.654401         1.263656
 H        -0.189697         4.346178        -0.951263
 H        -0.829898         5.366509         0.331162
 H         1.760795         2.307241         0.952084
 H         1.283115         3.185275         2.619943
 H        -0.585593         2.140786         2.544252
