19
Iteration:  2454
 O         0.321101         0.266137         0.269762
 C        -0.605332         1.218195         0.611788
 C        -2.142473         0.923019         0.589588
 C        -1.595356         2.149295        -0.195868
 C        -1.353611         3.291350         0.799355
 C        -0.420406         4.354147         0.206198
 O         0.932120         3.814379         0.310926
 C         0.969401         2.973932         1.405818
 C        -0.436387         2.352710         1.609506
 H         1.175194         0.585750         0.284512
 H        -2.315209        -0.005885        -0.077776
 H        -2.991286         1.148929         1.336556
 H        -1.896942         2.330552        -1.245127
 H        -2.180758         3.560919         1.309942
 H        -0.457185         4.477147        -0.888438
 H        -0.474882         5.328865         0.755530
 H         1.776289         2.171182         1.351127
 H         1.320642         3.464898         2.344638
 H        -0.390605         2.265269         2.710582
