19
Iteration:  3599
 O         0.171852         0.156872         0.388109
 C        -0.761261         1.173398         0.709617
 C        -2.177454         0.866247         0.454227
 C        -1.612329         2.089958        -0.263104
 C        -1.262890         3.232348         0.645620
 C        -0.275157         4.268026         0.007890
 O         0.819348         4.298601         0.938078
 C         1.100865         2.910625         1.111751
 C        -0.348834         2.340240         1.555769
 H         1.060381         0.365703         0.714577
 H        -2.284575        -0.008407        -0.142787
 H        -2.770331         0.945124         1.309124
 H        -1.622423         1.934733        -1.343381
 H        -2.070013         3.782544         1.064222
 H         0.164175         4.077358        -0.958184
 H        -0.839802         5.275446        -0.106834
 H         1.776849         2.621619         0.389070
 H         1.764195         2.721624         2.065551
 H        -0.398573         2.209692         2.644467
