19
Iteration:  2676charge 0 multiplicity 1
 O         0.284565         0.360964         0.324959
 C        -0.681497         1.185436         0.660213
 C        -2.049878         0.900040         0.575883
 C        -1.626037         2.085317        -0.167903
 C        -1.393237         3.299504         0.779161
 C        -0.352662         4.363149         0.189647
 O         0.973344         3.833297         0.278545
 C         0.980960         2.957126         1.413012
 C        -0.435296         2.316713         1.590384
 H         1.147267         0.809803         0.038828
 H        -2.236161        -0.018079         0.001913
 H        -2.722310         0.998254         1.382212
 H        -1.758559         2.255346        -1.259901
 H        -2.404411         3.761086         1.253306
 H        -0.597676         4.543246        -0.830529
 H        -0.592762         5.270030         0.725383
 H         1.805475         2.263927         1.108375
 H         1.200311         3.512236         2.325443
 H        -0.666304         1.977592         2.607392
