19
Iteration:   633
 O         0.300053         0.181655         0.415505
 C        -0.638166         1.222907         0.505993
 C        -2.193872         1.018943         0.525141
 C        -1.623073         2.069315        -0.242557
 C        -1.347126         3.210203         0.726464
 C        -0.437912         4.409777         0.373536
 O         0.876682         3.971673         0.304723
 C         1.095713         3.010861         1.361090
 C        -0.210769         2.299695         1.550485
 H        -0.144416        -0.685768         0.834017
 H        -2.753896         0.261085        -0.031777
 H        -2.607263         1.263295         1.501549
 H        -1.867380         2.043873        -1.369531
 H        -2.237386         3.484894         1.219083
 H        -0.798927         4.831386        -0.574568
 H        -0.480028         5.175564         1.094959
 H         1.905448         2.382818         0.907705
 H         1.391909         3.547980         2.225082
 H        -0.357009         2.116345         2.555895
