19
Iteration:   701
 O         0.253573         0.358703         0.207650
 C        -0.648012         1.208787         0.716608
 C        -2.121087         0.895837         0.503563
 C        -1.641342         2.042674        -0.217303
 C        -1.299736         3.264238         0.836496
 C        -0.401775         4.391336         0.304729
 O         0.948749         3.870628         0.240129
 C         1.044014         2.982887         1.396817
 C        -0.375467         2.375619         1.602303
 H         0.230180        -0.380061         0.802920
 H        -2.479501         0.024552        -0.037744
 H        -2.758049         1.027937         1.450669
 H        -1.559291         1.995631        -1.279123
 H        -2.137331         3.705566         1.379719
 H        -0.651623         4.635700        -0.703505
 H        -0.478370         5.273800         0.902578
 H         1.832021         2.138858         1.161206
 H         1.189905         3.564483         2.285053
 H        -0.492052         2.185713         2.637362
