19
Iteration:  3078
 O         0.437224         0.432686         0.330874
 C        -0.722057         1.106726         0.607145
 C        -2.301383         0.920747         0.568188
 C        -1.515273         2.054324        -0.251291
 C        -1.294511         3.278709         0.600056
 C        -0.376745         4.434850         0.278428
 O         0.985198         3.855587         0.356275
 C         0.960778         2.990849         1.506072
 C        -0.472607         2.270562         1.618388
 H         0.504330        -0.010561        -0.617156
 H        -2.604714         0.106037        -0.100263
 H        -2.905806         1.067704         1.485201
 H        -1.484796         2.130471        -1.393293
 H        -2.341089         3.640740         1.056235
 H        -0.368382         4.935982        -0.678199
 H        -0.378162         5.078298         1.168413
 H         1.684116         2.285817         1.307669
 H         1.118870         3.352246         2.528550
 H        -0.704836         1.896381         2.618946
