19
Iteration:  2932
 O         0.380391         0.397818         0.378529
 C        -0.731802         1.206465         0.650335
 C        -2.168891         0.946006         0.502680
 C        -1.618829         2.058644        -0.273777
 C        -1.303376         3.256098         0.710372
 C        -0.372698         4.338388         0.225816
 O         0.948417         3.932884         0.410075
 C         0.994693         2.880568         1.465910
 C        -0.366621         2.329415         1.545384
 H         0.307245        -0.185188        -0.427695
 H        -2.525342         0.055964        -0.090790
 H        -2.750523         0.894050         1.467132
 H        -1.629799         2.176891        -1.355144
 H        -2.234261         3.710481         1.337003
 H        -0.739511         4.532124        -0.889460
 H        -0.569708         5.367289         0.682042
 H         1.664679         2.203775         1.130122
 H         1.154075         3.393153         2.482104
 H        -0.509723         2.151834         2.625119
