19
Iteration:  4706
 O         0.187717         0.147934         0.382598
 C        -0.712694         1.182960         0.635630
 C        -2.213990         0.865065         0.511844
 C        -1.617899         2.067542        -0.287617
 C        -1.174337         3.205567         0.660425
 C        -0.275046         4.214086         0.000282
 O         0.755448         4.370928         0.942370
 C         1.120552         3.006761         1.303702
 C        -0.240394         2.326846         1.522467
 H         0.145517        -0.214112        -0.474277
 H        -2.395781        -0.076780        -0.114231
 H        -3.171159         1.066851         1.143684
 H        -1.775167         2.224339        -1.366376
 H        -2.008449         3.650602         1.343679
 H         0.021002         3.783481        -1.007481
 H        -0.782185         5.134419        -0.412656
 H         1.603096         2.444891         0.430651
 H         1.809241         2.942411         2.097591
 H        -0.564023         2.106304         2.525541
