19
Iteration:  1331
 O         0.319146         0.527964         0.151756
 C        -0.690564         1.271465         0.760811
 C        -2.072066         0.937549         0.509807
 C        -1.525636         2.139009        -0.175778
 C        -1.386853         3.261324         0.825684
 C        -0.430162         4.263443         0.236466
 O         0.903265         3.620846         0.175451
 C         0.992654         2.975176         1.486256
 C        -0.377457         2.411221         1.716209
 H         0.364212        -0.455481         0.500838
 H        -2.228702         0.110690        -0.260556
 H        -2.936241         1.000649         1.230104
 H        -1.303120         2.116591        -1.218889
 H        -2.286279         3.620998         1.289116
 H        -0.610797         4.631073        -0.852983
 H        -0.292735         5.148001         0.819063
 H         1.703732         2.166743         1.375584
 H         1.291172         3.754952         2.246683
 H        -0.768009         2.190609         2.807297
