19
Iteration:  3155charge 0 multiplicity 1
 O         0.350031         0.335353         0.224766
 C        -0.660444         1.148815         0.689943
 C        -2.183295         0.973054         0.385830
 C        -1.481145         2.130319        -0.244867
 C        -1.319859         3.250845         0.695560
 C        -0.405228         4.345890         0.293261
 O         0.930112         3.865670         0.284831
 C         0.936354         2.982961         1.526677
 C        -0.394370         2.293144         1.712338
 H         0.527521        -0.246411         1.014793
 H        -2.401937         0.154107        -0.312153
 H        -2.983261         1.215322         1.101729
 H        -1.424946         2.146184        -1.346105
 H        -2.394208         3.649582         1.042928
 H        -0.525380         4.803140        -0.682329
 H        -0.477810         5.153605         1.095847
 H         1.762099         2.346519         1.595255
 H         1.000239         3.647917         2.434789
 H        -0.852136         2.184705         2.679688
