19
Iteration:   334charge 0 multiplicity 1
 O         0.346680         0.185958         0.340840
 C        -0.661038         1.173452         0.668840
 C        -2.169064         0.934358         0.431860
 C        -1.475121         2.118229        -0.182452
 C        -1.372069         3.360428         0.866304
 C        -0.417877         4.449077         0.415350
 O         0.843132         3.860624         0.169305
 C         1.047435         2.969193         1.308966
 C        -0.353063         2.354960         1.561797
 H         0.335374        -0.436070         1.080848
 H        -2.244298         0.001048        -0.202226
 H        -2.991441         1.127240         1.147295
 H        -1.772471         2.287904        -1.252469
 H        -2.272235         3.605762         1.337842
 H        -0.892577         4.841919        -0.568113
 H        -0.373890         5.307334         1.122487
 H         1.828749         2.248864         1.017222
 H         1.246174         3.620715         2.175949
 H        -0.476650         2.105134         2.614825
