19
Iteration:   750
 O         0.347307         0.370236         0.131577
 C        -0.648262         1.296903         0.594299
 C        -2.052671         0.846850         0.638216
 C        -1.584257         2.150861        -0.163596
 C        -1.353799         3.327498         0.829380
 C        -0.338138         4.336574         0.214362
 O         0.905079         3.681946         0.213557
 C         0.930344         3.039063         1.498829
 C        -0.410235         2.369080         1.673618
 H        -0.164559        -0.476214         0.412768
 H        -2.284280        -0.051221         0.071054
 H        -2.697945         0.963141         1.489416
 H        -1.667660         2.338407        -1.272136
 H        -2.333745         3.681450         1.246073
 H        -0.452977         4.721733        -0.830431
 H        -0.340385         5.201434         0.920182
 H         1.638386         2.314531         1.410512
 H         1.066476         3.771603         2.324270
 H        -0.699867         2.071107         2.765910
