19
Iteration:  2610charge 0 multiplicity 1
 O         0.234987         0.288158         0.194713
 C        -0.596785         1.250394         0.632327
 C        -2.152962         0.970072         0.586172
 C        -1.510447         2.077610        -0.178153
 C        -1.297376         3.219255         0.822995
 C        -0.447278         4.316914         0.146256
 O         0.888315         3.750443         0.258595
 C         0.974487         3.098834         1.561716
 C        -0.364388         2.336212         1.633305
 H         1.135845         0.726252        -0.097301
 H        -2.341854         0.073392         0.045709
 H        -2.864299         1.230288         1.377455
 H        -1.555352         2.191194        -1.299929
 H        -2.284951         3.635274         1.286622
 H        -0.632945         4.505585        -0.878811
 H        -0.438614         5.289465         0.690345
 H         1.895229         2.377430         1.617333
 H         1.171416         3.794406         2.394747
 H        -0.714059         2.090509         2.643488
