19
Iteration:   336charge 0 multiplicity 1
 O         0.353386         0.188474         0.341803
 C        -0.677764         1.151797         0.670573
 C        -2.182273         0.925130         0.420372
 C        -1.480776         2.126926        -0.152758
 C        -1.364093         3.352304         0.870628
 C        -0.408095         4.451752         0.402358
 O         0.831076         3.867944         0.169130
 C         1.057596         2.983878         1.304986
 C        -0.348435         2.360019         1.551577
 H         0.336971        -0.479950         1.173673
 H        -2.246435         0.056586        -0.272254
 H        -2.986151         1.052694         1.090768
 H        -1.759124         2.262908        -1.270614
 H        -2.267829         3.655611         1.333106
 H        -0.833048         4.889480        -0.548232
 H        -0.291366         5.240844         1.136249
 H         1.829259         2.331787         1.042223
 H         1.245898         3.580170         2.156710
 H        -0.520242         2.057617         2.654410
