19
Iteration:  2654charge 0 multiplicity 1
 O         0.344172         0.248166         0.283877
 C        -0.671641         1.266525         0.594591
 C        -2.103329         0.818718         0.612333
 C        -1.655381         2.066387        -0.175989
 C        -1.340761         3.314011         0.679450
 C        -0.372515         4.377234         0.260883
 O         0.937579         3.745464         0.255962
 C         0.988056         3.037108         1.503058
 C        -0.399957         2.483874         1.656065
 H         0.691016         0.501578        -0.593822
 H        -2.277997         0.066987        -0.152864
 H        -2.884409         0.855739         1.330638
 H        -1.741734         2.258686        -1.273895
 H        -2.239408         3.533477         1.391959
 H        -0.533102         4.759539        -0.716055
 H        -0.498332         5.195855         0.985885
 H         1.835215         2.282785         1.364928
 H         1.257861         3.734667         2.315022
 H        -0.837947         2.311466         2.638821
