19
Iteration:    50
 O         0.274151         0.246515         0.275010
 C        -0.705695         1.222212         0.681962
 C        -2.160751         0.972231         0.635355
 C        -1.577025         2.075563        -0.281376
 C        -1.343167         3.199375         0.691021
 C        -0.503952         4.346256         0.284270
 O         0.940649         4.037159         0.354308
 C         1.094150         2.949515         1.320896
 C        -0.278098         2.363001         1.572904
 H         0.198011        -0.537117         0.960139
 H        -2.335179        -0.028933         0.164731
 H        -2.829066         1.041998         1.522321
 H        -1.428698         2.080278        -1.383916
 H        -2.252151         3.458692         1.265391
 H        -0.762481         4.850909        -0.697016
 H        -0.751095         5.216634         0.902456
 H         1.873272         2.243010         0.864949
 H         1.620356         3.202586         2.282296
 H        -0.464179         2.177412         2.674330
