19
Iteration:  4504
 O         0.194233         0.141464         0.293214
 C        -0.711063         1.110625         0.674584
 C        -2.199717         0.893889         0.490062
 C        -1.474903         2.037017        -0.290695
 C        -1.286700         3.257239         0.670541
 C        -0.345816         4.210952         0.056534
 O         0.856564         4.301245         0.842715
 C         1.077909         3.043147         1.430365
 C        -0.331446         2.308057         1.502333
 H         0.023395         0.095005        -0.720347
 H        -2.590296         0.166742        -0.162252
 H        -2.901343         1.367431         1.157700
 H        -1.152109         1.993026        -1.333773
 H        -2.032288         3.848691         1.172008
 H        -0.164006         3.930438        -1.067587
 H        -0.812479         5.191905        -0.007873
 H         1.699115         2.306570         0.839433
 H         1.453058         3.318212         2.462745
 H        -0.467574         2.147348         2.598563
