19
Iteration:  3161
 O         0.355500         0.325902         0.212634
 C        -0.673936         1.230118         0.675829
 C        -2.189757         1.012937         0.406327
 C        -1.435418         2.023839        -0.271102
 C        -1.372181         3.289922         0.655544
 C        -0.413495         4.327149         0.338838
 O         0.938407         3.847407         0.306246
 C         0.940249         2.971109         1.540924
 C        -0.418043         2.313831         1.691597
 H         0.646359        -0.100726         0.978050
 H        -2.451825         0.193230        -0.259704
 H        -2.846511         1.237825         1.256177
 H        -1.400158         1.974515        -1.358268
 H        -2.246740         3.589489         1.102334
 H        -0.648632         4.911983        -0.621470
 H        -0.548272         5.165562         1.019344
 H         1.830639         2.229965         1.411224
 H         1.170605         3.535822         2.467016
 H        -0.843212         2.234082         2.730063
