19
Iteration:  2138
 O         0.320771         0.339272         0.141814
 C        -0.649999         1.226312         0.689671
 C        -2.132590         0.979814         0.507595
 C        -1.478412         2.069977        -0.195590
 C        -1.359975         3.348804         0.794041
 C        -0.395852         4.377911         0.223711
 O         0.847605         3.724679         0.180804
 C         1.003175         2.999975         1.580354
 C        -0.391698         2.334740         1.692839
 H         0.452810        -0.441514         0.826785
 H        -2.376522         0.079340        -0.059350
 H        -2.786747         1.048328         1.367763
 H        -1.562157         2.276809        -1.221447
 H        -2.381252         3.472222         1.333976
 H        -0.545959         4.772272        -0.805985
 H        -0.479636         5.287548         0.881707
 H         1.948124         2.315856         1.316366
 H         1.114874         3.768193         2.382302
 H        -0.602262         2.119188         2.783392
