19
Iteration:  1061charge 0 multiplicity 1
 O         0.361987         0.364844         0.045742
 C        -0.635828         1.233643         0.654948
 C        -2.115193         0.982318         0.704144
 C        -1.558104         2.116951        -0.131807
 C        -1.312602         3.294398         0.730179
 C        -0.477704         4.361645         0.127481
 O         0.963880         3.804396         0.381025
 C         0.955219         2.930107         1.485327
 C        -0.401887         2.346742         1.600149
 H         0.374239        -0.527321         0.606935
 H        -2.467084         0.109214         0.188579
 H        -2.687838         1.271093         1.694845
 H        -1.949135         2.055743        -1.145819
 H        -2.337886         3.475382         1.242758
 H        -0.604677         4.529200        -0.948927
 H        -0.648464         5.378561         0.588988
 H         1.750653         2.076202         1.390018
 H         1.408183         3.474525         2.349661
 H        -0.879474         2.039073         2.641415
