19
Iteration:  3364charge 0 multiplicity 1
 O         0.212771         0.188774         0.205267
 C        -0.642540         1.155266         0.615656
 C        -2.154602         0.937012         0.414221
 C        -1.524315         2.106725        -0.232408
 C        -1.341988         3.264475         0.708921
 C        -0.381598         4.267891         0.265123
 O         0.921489         3.755005         0.322019
 C         0.941896         3.263041         1.658845
 C        -0.312703         2.363407         1.664441
 H         1.128954         0.492218        -0.092089
 H        -2.094578         0.057458        -0.257006
 H        -2.773171         0.928170         1.311009
 H        -1.580441         2.248675        -1.338362
 H        -2.237260         3.624986         1.112152
 H        -0.635957         4.534933        -0.770586
 H        -0.330135         5.261399         0.850009
 H         1.891841         2.954904         1.955833
 H         0.816025         4.051029         2.481506
 H        -0.737354         2.210307         2.661513
