19
Iteration:  4729charge 0 multiplicity 1
 O         0.308162         0.201561         0.338661
 C        -0.724451         1.129470         0.659803
 C        -2.219664         0.913481         0.497313
 C        -1.598349         2.061515        -0.227946
 C        -1.325636         3.315159         0.629467
 C        -0.258202         4.201019         0.043265
 O         0.845203         4.307838         0.890469
 C         1.073225         2.961976         1.262557
 C        -0.359933         2.322295         1.556603
 H         0.311428        -0.166625        -0.575144
 H        -2.428396        -0.006937        -0.023599
 H        -2.759734         0.880132         1.508713
 H        -1.673575         1.954223        -1.288849
 H        -2.258034         3.769369         1.150426
 H        -0.034279         3.768551        -0.977565
 H        -0.657555         5.222650        -0.275168
 H         1.622817         2.291765         0.537071
 H         1.659535         2.904037         2.190438
 H        -0.671406         2.165434         2.555394
