19
Iteration:  3215
 O         0.393500         0.226720         0.283474
 C        -0.741142         1.152956         0.596185
 C        -2.198945         0.826356         0.413978
 C        -1.594936         2.081933        -0.275629
 C        -1.359111         3.260271         0.717467
 C        -0.357501         4.404123         0.278268
 O         1.004045         3.960414         0.437934
 C         1.003052         3.080828         1.538872
 C        -0.397909         2.353649         1.572649
 H         0.145812        -0.546122         0.713626
 H        -2.477359         0.006142        -0.265008
 H        -2.952002         1.127942         1.148746
 H        -1.666695         2.388437        -1.331171
 H        -2.280879         3.630242         1.171181
 H        -0.333417         4.615078        -0.829080
 H        -0.595132         5.307598         0.905933
 H         1.855510         2.272805         1.261941
 H         1.091900         3.656583         2.430620
 H        -0.770670         2.398332         2.640729
