19
Iteration:   692
 O         0.234032         0.285194         0.163425
 C        -0.737300         1.194284         0.764365
 C        -2.104841         0.853773         0.538334
 C        -1.596717         2.088659        -0.205516
 C        -1.336219         3.285407         0.783465
 C        -0.399569         4.400042         0.294019
 O         0.944667         3.896009         0.260096
 C         1.056720         2.988820         1.388443
 C        -0.333659         2.436879         1.642978
 H         0.334608        -0.497296         0.692130
 H        -2.047278        -0.004315        -0.197427
 H        -2.917022         0.842790         1.349283
 H        -1.489700         2.093623        -1.238594
 H        -2.315841         3.538626         1.304587
 H        -0.658362         4.665708        -0.709047
 H        -0.499293         5.302051         0.924683
 H         1.802461         2.141939         1.133102
 H         1.599358         3.393077         2.235893
 H        -0.640570         2.429354         2.740343
