19
Iteration:  2316
 O         0.371347         0.352273         0.282523
 C        -0.724166         1.214997         0.665224
 C        -2.107064         0.813250         0.600792
 C        -1.563886         2.148984        -0.225067
 C        -1.300664         3.303039         0.682220
 C        -0.375563         4.432704         0.317933
 O         0.913860         3.798568         0.268625
 C         0.997662         2.982356         1.399389
 C        -0.463013         2.365084         1.555572
 H         0.245510        -0.628720         0.674769
 H        -2.428778         0.098664        -0.176781
 H        -2.715975         0.978540         1.393931
 H        -1.658539         2.312122        -1.332910
 H        -2.260121         3.767422         1.189265
 H        -0.668934         5.036281        -0.517795
 H        -0.412649         4.960671         1.346295
 H         1.666963         2.120823         1.191166
 H         1.404401         3.433496         2.322831
 H        -0.680004         2.158669         2.620995
