19
Iteration:  4592charge 0 multiplicity 1
 O         0.215250         0.160655         0.311642
 C        -0.750945         1.162573         0.678443
 C        -2.217529         0.935374         0.396465
 C        -1.436719         2.015720        -0.289639
 C        -1.316030         3.272965         0.758624
 C        -0.369128         4.251947         0.059170
 O         0.842013         4.292270         0.874207
 C         1.070891         2.882899         1.217633
 C        -0.352222         2.405044         1.575381
 H         0.981311         0.154715         0.935816
 H        -2.274069         0.014869        -0.157949
 H        -2.926461         0.994092         1.247057
 H        -1.471333         2.074271        -1.348828
 H        -2.220715         3.623345         1.164383
 H        -0.063800         3.910255        -0.947089
 H        -0.564866         5.270880        -0.185227
 H         1.498135         2.364356         0.334749
 H         1.800957         2.884000         2.092819
 H        -0.615365         2.130768         2.650717
