19
Iteration:  3011charge 0 multiplicity 1
 O         0.320771         0.149446         0.222277
 C        -0.677983         1.161128         0.638478
 C        -2.199510         1.013132         0.432622
 C        -1.515050         2.153826        -0.210375
 C        -1.325190         3.235583         0.821061
 C        -0.456360         4.353017         0.206345
 O         0.984369         3.794269         0.326168
 C         0.920959         3.126484         1.569511
 C        -0.360538         2.325404         1.583335
 H         1.113155         0.610687         0.320976
 H        -2.235597         0.192201        -0.276101
 H        -2.945391         1.230594         1.235366
 H        -1.393784         2.401726        -1.260456
 H        -2.222028         3.587658         1.495813
 H        -0.689415         4.503847        -0.881065
 H        -0.562615         5.201999         0.895145
 H         1.715551         2.479720         1.674788
 H         1.044706         3.841704         2.404971
 H        -0.731845         2.186758         2.610056
