19
Iteration:  3946charge 0 multiplicity 1
 O         0.113053         0.063305         0.261586
 C        -0.662681         1.099773         0.702830
 C        -2.225685         0.956368         0.379984
 C        -1.427030         1.990824        -0.345579
 C        -1.251006         3.164245         0.601866
 C        -0.381247         4.373345         0.189121
 O         0.950249         4.361056         0.756397
 C         1.002167         3.030438         1.410080
 C        -0.330916         2.334196         1.596087
 H         0.289187        -0.664899         0.951010
 H        -2.575560         0.089634        -0.277477
 H        -2.847279         1.241079         1.316065
 H        -1.431259         2.006188        -1.441515
 H        -2.153881         3.512648         1.046787
 H        -0.164975         4.417024        -0.924422
 H        -0.829987         5.433825         0.285219
 H         1.587195         2.304985         0.871915
 H         1.582970         2.930888         2.275206
 H        -0.543851         2.333478         2.700066
