19
Iteration:   491
 O         0.367363         0.469070         0.013791
 C        -0.618696         1.235031         0.633822
 C        -2.241502         0.992074         0.700113
 C        -1.607898         2.010398        -0.155060
 C        -1.316259         3.211117         0.796168
 C        -0.406679         4.262621         0.147991
 O         0.935000         3.748567         0.333971
 C         0.959676         3.041305         1.503215
 C        -0.348792         2.396840         1.659270
 H         0.425635        -0.422146         0.498833
 H        -2.643004         0.093999         0.245825
 H        -2.882837         1.307282         1.481948
 H        -1.499019         1.967839        -1.214491
 H        -2.194804         3.576239         1.205921
 H        -0.529575         4.463563        -0.915297
 H        -0.468402         5.290545         0.641458
 H         1.732355         2.262357         1.399430
 H         1.252440         3.721472         2.450591
 H        -0.455416         2.239561         2.696802
