19
Iteration:  4213charge 0 multiplicity 1
 O         0.319271         0.196250         0.238323
 C        -0.740694         1.178365         0.610845
 C        -2.222214         0.941706         0.621337
 C        -1.499866         1.967937        -0.325682
 C        -1.302972         3.243672         0.476162
 C        -0.342208         4.363579         0.117448
 O         0.951160         4.219232         0.867135
 C         0.990086         2.942395         1.400929
 C        -0.390512         2.357564         1.555988
 H        -0.134984        -0.716704         0.170994
 H        -2.509397         0.072362         0.041352
 H        -2.804029         1.295177         1.406381
 H        -1.425618         1.689584        -1.386611
 H        -2.169648         3.694174         0.890274
 H        -0.059953         4.233108        -0.972308
 H        -0.718160         5.426626         0.465815
 H         1.590434         2.239778         0.700632
 H         1.411557         3.068464         2.402586
 H        -0.791185         2.194754         2.617096
