19
Iteration:  1629
 O         0.235422         0.277137         0.126530
 C        -0.663877         1.164173         0.606638
 C        -2.152124         0.955026         0.627809
 C        -1.566816         2.173627        -0.166620
 C        -1.278736         3.248678         0.755289
 C        -0.403711         4.369820         0.067438
 O         0.942451         3.943296         0.424138
 C         0.975318         2.989558         1.550293
 C        -0.306078         2.221208         1.611866
 H         0.745522        -0.251760         0.725386
 H        -2.475300         0.050761         0.061805
 H        -2.872185         1.135486         1.491412
 H        -1.850934         2.282000        -1.203612
 H        -2.025117         3.806027         1.257783
 H        -0.643365         4.308378        -1.054793
 H        -0.546896         5.406870         0.418271
 H         1.873743         2.476937         1.357396
 H         1.052683         3.597636         2.397548
 H        -0.738773         1.969228         2.593151
