19
Iteration:  3036
 O         0.272150         0.242713         0.331441
 C        -0.696033         1.267236         0.561596
 C        -2.054995         0.886692         0.489384
 C        -1.521187         2.130362        -0.257138
 C        -1.401650         3.321978         0.722681
 C        -0.367499         4.411797         0.206069
 O         0.928886         3.838061         0.398400
 C         0.948423         2.977126         1.533165
 C        -0.405826         2.300691         1.662758
 H         0.583770         0.419246        -0.545053
 H        -2.056029         0.027774        -0.185895
 H        -2.570658         0.985650         1.430038
 H        -1.610424         2.177451        -1.383516
 H        -2.294710         3.744346         1.052822
 H        -0.469898         4.598072        -0.815913
 H        -0.584678         5.269145         0.877307
 H         1.677270         2.071077         1.334108
 H         1.458420         3.525602         2.344886
 H        -0.757072         2.109161         2.690581
