19
Iteration:   972
 O         0.336710         0.257000         0.215196
 C        -0.614618         1.221958         0.666015
 C        -2.121549         0.995347         0.547744
 C        -1.411299         2.183101        -0.202177
 C        -1.369726         3.268439         0.817395
 C        -0.460101         4.375774         0.307536
 O         0.802723         3.809977         0.254600
 C         1.008991         2.958770         1.349596
 C        -0.382993         2.343580         1.655393
 H         0.056167        -0.542909         0.859986
 H        -2.454524         0.202206        -0.165662
 H        -2.768220         1.392942         1.319634
 H        -1.328438         2.112384        -1.322298
 H        -2.315600         3.711139         1.303228
 H        -0.711184         4.514645        -0.772711
 H        -0.604223         5.303808         0.877959
 H         1.785382         2.202554         1.090477
 H         1.407852         3.469123         2.258821
 H        -0.470644         2.171869         2.820618
