19
Iteration:  3684charge 0 multiplicity 1
 O         0.201299         0.034396         0.277514
 C        -0.667227         1.149574         0.613558
 C        -2.169061         0.880045         0.541058
 C        -1.546165         2.094749        -0.289544
 C        -1.291336         3.246103         0.663343
 C        -0.261364         4.278250         0.014403
 O         0.851083         4.366419         0.859650
 C         1.068369         3.020055         1.426235
 C        -0.324836         2.355504         1.547522
 H        -0.357095        -0.534516        -0.327567
 H        -2.388308        -0.073014         0.052159
 H        -2.999421         1.115050         1.223719
 H        -1.936921         2.197929        -1.290569
 H        -2.216625         3.614740         1.195532
 H         0.037259         3.773772        -0.956101
 H        -0.734428         5.250390        -0.375280
 H         1.635355         2.462588         0.593815
 H         1.629452         3.031650         2.371396
 H        -0.593615         2.245237         2.636230
