19
Iteration:  4701charge 0 multiplicity 1
 O         0.192465         0.118211         0.379015
 C        -0.713282         1.152435         0.627061
 C        -2.239493         0.911072         0.502989
 C        -1.609258         2.044040        -0.295093
 C        -1.193173         3.277565         0.648275
 C        -0.286254         4.232780         0.007865
 O         0.747741         4.396024         0.938114
 C         1.113803         3.001568         1.281338
 C        -0.213499         2.298543         1.529331
 H         0.110479        -0.347002        -0.545792
 H        -2.201985        -0.092835         0.036976
 H        -2.977718         1.054534         1.251715
 H        -1.747038         2.050881        -1.394066
 H        -1.934405         3.598334         1.295213
 H         0.085415         3.636702        -0.833484
 H        -0.766427         5.168494        -0.210916
 H         1.590072         2.428976         0.517350
 H         1.825665         2.976678         2.183594
 H        -0.729117         2.075137         2.525790
