19
Iteration:  4555charge 0 multiplicity 1
 O         0.205457         0.065409         0.350829
 C        -0.669600         1.140572         0.525050
 C        -2.207839         0.892547         0.576615
 C        -1.544717         1.986180        -0.296330
 C        -1.321215         3.242753         0.566910
 C        -0.321356         4.487246         0.091139
 O         0.922698         4.249240         0.849278
 C         1.055854         2.900097         1.371838
 C        -0.409370         2.354265         1.448802
 H         1.012938         0.532789         0.347069
 H        -2.387589        -0.069457         0.041968
 H        -2.622339         0.987086         1.545559
 H        -1.842900         2.048759        -1.382998
 H        -2.226644         3.632318         1.068384
 H        -0.123038         4.351126        -0.929482
 H        -0.805365         5.477105         0.369865
 H         1.690759         2.234252         0.873382
 H         1.493166         3.131354         2.395470
 H        -0.615623         2.371943         2.566118
