19
Iteration:  3376
 O         0.250046         0.102472         0.224299
 C        -0.658725         1.240132         0.577340
 C        -2.098519         0.884455         0.524764
 C        -1.545579         2.124203        -0.284637
 C        -1.329896         3.235958         0.709459
 C        -0.380907         4.379890         0.242430
 O         0.989198         3.771870         0.339051
 C         0.934077         3.263131         1.706070
 C        -0.383846         2.315863         1.590190
 H         0.758707         0.646632        -0.295172
 H        -2.561990         0.157338        -0.169910
 H        -2.763837         0.915986         1.393999
 H        -1.468776         2.175624        -1.387546
 H        -2.209222         3.651633         1.203251
 H        -0.499372         4.690264        -0.778198
 H        -0.600691         5.258552         1.004338
 H         1.828831         2.802799         1.861489
 H         0.551295         4.169700         2.264420
 H        -0.686929         1.975140         2.592600
