19
Iteration:  4205
 O         0.311758         0.234162         0.237954
 C        -0.673919         1.165958         0.635258
 C        -2.199997         0.894442         0.601349
 C        -1.501533         1.959600        -0.298898
 C        -1.286183         3.331112         0.496709
 C        -0.272491         4.330193         0.077341
 O         0.870911         4.220750         0.877750
 C         0.973202         2.857145         1.383052
 C        -0.436063         2.361222         1.504169
 H        -0.077460        -0.666805         0.415150
 H        -2.723215         0.076837         0.131612
 H        -2.668780         1.444853         1.419316
 H        -1.584711         1.850340        -1.399540
 H        -2.230582         3.749332         0.975892
 H        -0.174396         4.547428        -1.051039
 H        -0.626612         5.288160         0.485416
 H         1.712959         2.167094         0.837322
 H         1.411280         3.019962         2.468358
 H        -0.583798         2.232755         2.582771
