19
Iteration:  2966charge 0 multiplicity 1
 O         0.334563         0.271141         0.155992
 C        -0.629143         1.200334         0.630487
 C        -2.121543         0.897703         0.521021
 C        -1.528158         2.089905        -0.261074
 C        -1.416103         3.312378         0.698712
 C        -0.345715         4.388001         0.285405
 O         0.937157         3.835989         0.334453
 C         0.934113         2.975932         1.552397
 C        -0.441102         2.450093         1.650964
 H         0.274613        -0.407379         0.780309
 H        -2.371810         0.021340        -0.094667
 H        -2.577511         1.002228         1.550803
 H        -1.455736         1.959384        -1.309559
 H        -2.438487         3.803550         1.052353
 H        -0.590350         4.644025        -0.823126
 H        -0.459170         5.248522         0.994122
 H         1.678613         2.241911         1.445253
 H         1.346631         3.594860         2.391805
 H        -0.570261         2.180697         2.712742
