19
Iteration:  3032
 O         0.261373         0.221155         0.326840
 C        -0.664602         1.234796         0.578088
 C        -2.047299         0.910340         0.457876
 C        -1.524911         2.142670        -0.259707
 C        -1.350876         3.317746         0.736843
 C        -0.360227         4.391639         0.218438
 O         0.882115         3.853593         0.373703
 C         0.964976         2.966639         1.530709
 C        -0.416902         2.300690         1.693646
 H         0.718582         0.501084        -0.563601
 H        -2.204869         0.106784        -0.267332
 H        -2.559755         1.083316         1.425116
 H        -1.702818         2.192481        -1.326671
 H        -2.410020         3.796976         1.072622
 H        -0.451178         4.457924        -0.928486
 H        -0.526140         5.317200         0.817181
 H         1.680520         2.249521         1.413355
 H         1.261559         3.564870         2.434363
 H        -0.695213         2.126727         2.742496
