19
Iteration:   820charge 0 multiplicity 1
 O         0.306156         0.325586         0.165213
 C        -0.612033         1.248914         0.514824
 C        -2.093534         0.966741         0.745238
 C        -1.669790         2.132199        -0.253172
 C        -1.331944         3.247693         0.746718
 C        -0.366093         4.318561         0.161046
 O         0.877454         3.804035         0.372786
 C         0.987857         2.974478         1.516835
 C        -0.344421         2.371811         1.533042
 H         0.800266        -0.062580         1.010595
 H        -2.402819         0.000026         0.278643
 H        -2.560238         1.120161         1.717964
 H        -1.865477         2.361249        -1.258833
 H        -2.111253         3.647537         1.328380
 H        -0.615563         4.549332        -0.874899
 H        -0.608061         5.195356         0.860866
 H         1.766056         2.195991         1.283274
 H         1.090428         3.547933         2.438373
 H        -0.660636         2.019989         2.511858
