19
Iteration:   537charge 0 multiplicity 1
 O         0.393689         0.306162         0.175608
 C        -0.679202         1.209148         0.644545
 C        -2.121739         0.799491         0.532680
 C        -1.640844         2.118399        -0.123670
 C        -1.372146         3.431192         0.855971
 C        -0.342022         4.418006         0.272064
 O         0.907650         3.737627         0.180621
 C         0.969879         2.949416         1.438963
 C        -0.412867         2.397288         1.599069
 H         0.536310        -0.252836         0.950372
 H        -2.356684        -0.137045        -0.048778
 H        -2.618418         0.833505         1.531215
 H        -1.873462         2.371203        -1.197065
 H        -2.173118         3.927518         1.447059
 H        -0.496861         4.747399        -0.728194
 H        -0.358134         5.427318         0.846457
 H         1.874710         2.209095         1.308518
 H         1.209291         3.691752         2.334577
 H        -0.766089         2.374248         2.697688
