19
Iteration:   683charge 0 multiplicity 1
 O         0.212970         0.231921         0.142180
 C        -0.693809         1.185865         0.744768
 C        -2.161156         0.801343         0.570877
 C        -1.485719         2.128482        -0.127583
 C        -1.364876         3.295959         0.706412
 C        -0.431743         4.418097         0.240575
 O         0.922452         3.914166         0.309792
 C         1.094784         2.972064         1.354128
 C        -0.340113         2.445196         1.715013
 H         0.355933        -0.542842         0.664279
 H        -2.030485        -0.043555        -0.169078
 H        -3.105423         0.729045         1.102481
 H        -1.463609         2.276912        -1.176593
 H        -2.288120         3.766715         1.223454
 H        -0.576810         4.858973        -0.773434
 H        -0.474705         5.261214         1.033723
 H         1.588677         2.206948         0.828983
 H         1.645741         3.507240         2.203362
 H        -0.617556         2.452562         2.868785
