19
Iteration:   860charge 0 multiplicity 1
 O         0.216782         0.238405         0.121406
 C        -0.717093         1.117123         0.734590
 C        -2.217272         0.867260         0.584518
 C        -1.497731         2.030303        -0.119110
 C        -1.190532         3.253550         0.711830
 C        -0.386367         4.402429         0.276710
 O         0.917789         3.941679         0.277891
 C         0.972286         3.152587         1.454154
 C        -0.315767         2.349656         1.571728
 H        -0.031220        -0.645812         0.305546
 H        -2.276078         0.021140        -0.018265
 H        -2.774119         0.859932         1.485162
 H        -1.468170         2.059600        -1.225020
 H        -2.128845         3.658787         1.278211
 H        -0.484946         4.858812        -0.764662
 H        -0.473451         5.173052         1.001176
 H         1.833594         2.612120         1.379661
 H         1.076056         3.839786         2.357603
 H        -0.585014         2.379077         2.720780
