19
Iteration:  1053charge 0 multiplicity 1
 O         0.325464         0.351512         0.005059
 C        -0.554085         1.196492         0.626265
 C        -2.126754         1.021841         0.772262
 C        -1.476540         2.017043        -0.125719
 C        -1.351539         3.283863         0.720677
 C        -0.443004         4.432065         0.138777
 O         0.922081         3.809066         0.388242
 C         0.917268         2.919757         1.533907
 C        -0.424805         2.388696         1.566793
 H         0.309653        -0.560733         0.575412
 H        -2.666117         0.267177         0.148976
 H        -2.662574         1.189627         1.736168
 H        -1.807006         1.884613        -1.111978
 H        -2.226340         3.727744         1.074606
 H        -0.569366         4.547495        -0.916818
 H        -0.563592         5.402007         0.593957
 H         1.656806         2.059408         1.158967
 H         1.219890         3.449283         2.427083
 H        -0.522003         2.124599         2.708061
