19
Iteration:   524charge 0 multiplicity 1
 O         0.314790         0.378738         0.141328
 C        -0.661736         1.265167         0.620191
 C        -2.092102         0.768643         0.639773
 C        -1.730270         2.075365        -0.111997
 C        -1.309321         3.331102         0.750969
 C        -0.267610         4.467968         0.245031
 O         0.922752         3.710896         0.246605
 C         0.928495         3.021862         1.422840
 C        -0.417757         2.400498         1.617259
 H         0.605716        -0.209597         0.955855
 H        -2.135068         0.044548        -0.202986
 H        -2.805805         0.614094         1.419924
 H        -1.835051         1.972850        -1.190625
 H        -2.088605         3.752029         1.300448
 H        -0.473268         4.916314        -0.718689
 H        -0.156919         5.195248         1.129953
 H         1.705807         2.218831         1.417282
 H         1.098236         3.755347         2.331047
 H        -0.504418         2.113465         2.620079
