19
Iteration:  4299
 O         0.250859         0.215485         0.374078
 C        -0.740666         1.114624         0.658340
 C        -2.205767         0.845569         0.505511
 C        -1.441907         1.999612        -0.323612
 C        -1.328901         3.303201         0.544987
 C        -0.234585         4.432704         0.067598
 O         0.815402         4.299276         1.024468
 C         1.082471         2.844588         1.208141
 C        -0.378674         2.325298         1.477539
 H        -0.120118        -0.740021         0.295214
 H        -2.537239        -0.090451        -0.072209
 H        -2.923731         1.327799         1.296748
 H        -1.712634         1.771097        -1.369615
 H        -2.171922         3.757154         1.141709
 H         0.222915         4.186951        -0.912873
 H        -0.729853         5.467848         0.239970
 H         1.500847         2.425218         0.294134
 H         1.731592         2.704557         2.021600
 H        -0.732313         2.355852         2.544774
