19
Iteration:  3673
 O         0.156973         0.028452         0.303132
 C        -0.692070         1.165875         0.560813
 C        -2.173518         0.932348         0.569989
 C        -1.603321         2.002732        -0.331154
 C        -1.314319         3.174464         0.643014
 C        -0.296609         4.269385         0.024366
 O         0.844506         4.389391         0.872874
 C         1.104975         3.021198         1.382903
 C        -0.253274         2.342415         1.579177
 H        -0.165337        -0.360100        -0.460131
 H        -2.401207        -0.000554         0.058773
 H        -2.827834         1.310428         1.379728
 H        -1.469746         2.171305        -1.405479
 H        -2.186361         3.809586         0.975900
 H         0.098014         3.939004        -1.004099
 H        -0.612445         5.414677         0.132009
 H         2.028567         2.462469         0.840159
 H         1.429460         3.326096         2.387884
 H        -0.574314         2.121248         2.644298
