19
Iteration:  4154
 O         0.186947         0.229468         0.246233
 C        -0.785423         1.134576         0.682379
 C        -2.214513         0.889432         0.405419
 C        -1.576371         2.102262        -0.274317
 C        -1.240749         3.204726         0.666651
 C        -0.244355         4.189205        -0.042852
 O         0.807728         4.318604         0.965960
 C         1.116713         2.992456         1.342618
 C        -0.352329         2.318219         1.554793
 H         0.587544        -0.189235         0.951484
 H        -2.294374         0.004972        -0.227338
 H        -3.018046         0.942832         1.282166
 H        -1.530720         2.211244        -1.350721
 H        -2.062483         3.540021         1.310657
 H         0.093413         3.607537        -0.898091
 H        -0.356819         5.175783        -0.459810
 H         1.683359         2.374979         0.680118
 H         1.731034         3.090636         2.200003
 H        -0.585224         2.292206         2.611253
