19
Iteration:  1242charge 0 multiplicity 1
 O         0.281341         0.188816         0.170174
 C        -0.677937         1.109752         0.666767
 C        -2.225893         0.966404         0.639134
 C        -1.493541         2.057219        -0.175368
 C        -1.243246         3.305048         0.669499
 C        -0.437331         4.421444         0.238541
 O         0.909452         3.997116         0.363702
 C         0.972281         2.998728         1.410863
 C        -0.279936         2.341072         1.584791
 H         0.099104        -0.769509         0.562678
 H        -2.469844         0.072806         0.072849
 H        -2.837171         1.125346         1.534280
 H        -1.748395         2.181818        -1.239663
 H        -2.098386         3.584453         1.174415
 H        -0.600373         4.703372        -0.833703
 H        -0.727489         5.206944         0.910003
 H         1.858155         2.375994         1.227503
 H         1.269076         3.524743         2.384848
 H        -0.554548         2.398867         2.737976
