19
Iteration:  1086charge 0 multiplicity 1
 O         0.309193         0.430988         0.189988
 C        -0.702144         1.295455         0.629020
 C        -2.202150         0.793076         0.490683
 C        -1.739451         2.079783        -0.109571
 C        -1.340866         3.261847         0.861116
 C        -0.334713         4.282340         0.210746
 O         1.016483         3.819044         0.283896
 C         1.033411         3.074988         1.448361
 C        -0.333356         2.363180         1.595106
 H         0.227981        -0.316068         0.802256
 H        -2.356959        -0.036328        -0.277634
 H        -2.843854         0.773481         1.373590
 H        -1.827398         2.120073        -1.171966
 H        -2.182715         3.731882         1.292824
 H        -0.584090         4.472669        -0.809096
 H        -0.454568         5.213382         0.775567
 H         1.945180         2.334757         1.446489
 H         1.286477         3.736178         2.274697
 H        -0.376595         1.941183         2.689562
