19
Iteration:  3960
 O         0.190051         0.027155         0.253786
 C        -0.701705         1.126838         0.595936
 C        -2.223883         1.020431         0.519789
 C        -1.430064         1.973823        -0.345972
 C        -1.278794         3.207949         0.547357
 C        -0.382709         4.378519         0.153132
 O         0.941136         4.278507         0.838234
 C         1.062372         2.988052         1.385036
 C        -0.385116         2.349278         1.539626
 H         0.467642        -0.336940         1.132799
 H        -2.477138         0.063425         0.145244
 H        -2.940966         1.452775         1.140633
 H        -1.317064         1.962632        -1.449750
 H        -2.340859         3.560831         0.885946
 H        -0.358782         4.543378        -0.948039
 H        -0.880503         5.255692         0.711605
 H         1.715559         2.426900         0.754535
 H         1.457893         3.269939         2.337859
 H        -0.734117         2.150008         2.578935
