19
Iteration:  3774charge 0 multiplicity 1
 O         0.146035         0.031113         0.221518
 C        -0.695925         1.158933         0.598635
 C        -2.132400         0.916634         0.548480
 C        -1.621326         2.062685        -0.257999
 C        -1.276057         3.242562         0.589805
 C        -0.275485         4.242420         0.036617
 O         0.905217         4.308484         0.892105
 C         1.044834         2.966656         1.443341
 C        -0.390580         2.397585         1.511612
 H         1.108804         0.375125         0.243378
 H        -2.494989         0.169105        -0.113889
 H        -2.749315         1.094255         1.350012
 H        -1.560861         2.082157        -1.342860
 H        -2.130183         3.634489         1.110174
 H        -0.007456         3.978150        -1.027129
 H        -0.653343         5.318414         0.035322
 H         1.658474         2.365511         0.794822
 H         1.437216         3.217774         2.419799
 H        -0.663940         2.259136         2.576528
