19
Iteration:   416
 O         0.344394         0.302169         0.186596
 C        -0.655486         1.174266         0.607785
 C        -2.190704         0.908805         0.695739
 C        -1.550938         2.069456        -0.144639
 C        -1.324735         3.260277         0.719323
 C        -0.372456         4.391342         0.314521
 O         0.945936         3.895899         0.268871
 C         0.949501         3.057877         1.388580
 C        -0.380858         2.329924         1.525685
 H         0.043355        -0.632851         0.472993
 H        -2.587344         0.106909         0.091453
 H        -2.796260         1.175186         1.568823
 H        -1.558523         2.054948        -1.198224
 H        -2.198008         3.555805         1.373645
 H        -0.557658         4.786251        -0.644903
 H        -0.424693         5.199064         1.043228
 H         1.807765         2.362890         1.306437
 H         1.152027         3.626274         2.240684
 H        -0.601413         2.069687         2.654542
