19
Iteration:   745
 O         0.374644         0.340169         0.145726
 C        -0.598474         1.260497         0.570190
 C        -2.052244         0.883802         0.623185
 C        -1.615158         2.152480        -0.161579
 C        -1.347257         3.345098         0.824286
 C        -0.357694         4.345852         0.215917
 O         0.891556         3.661633         0.233573
 C         0.902627         3.047491         1.477225
 C        -0.416230         2.373820         1.674849
 H         0.028442        -0.472027         0.374943
 H        -2.446512        -0.028265         0.088964
 H        -2.715894         1.249527         1.485126
 H        -1.752652         2.329905        -1.189308
 H        -2.219757         3.705603         1.382171
 H        -0.544706         4.744630        -0.762933
 H        -0.334503         5.171939         0.938032
 H         1.806547         2.237613         1.473570
 H         1.102785         3.747545         2.302997
 H        -0.752957         2.146186         2.629041
