19
Iteration:  1315charge 0 multiplicity 1
 O         0.439756         0.474606         0.102726
 C        -0.602729         1.245160         0.700405
 C        -2.233793         1.007131         0.533440
 C        -1.407083         2.117902        -0.112697
 C        -1.332246         3.264769         0.839923
 C        -0.405192         4.335802         0.158747
 O         0.863723         3.663696         0.152902
 C         0.892873         2.904865         1.510191
 C        -0.483588         2.335847         1.771668
 H         0.401047        -0.386693         0.559116
 H        -2.469514         0.060617         0.184382
 H        -2.811906         1.332732         1.361685
 H        -1.371219         2.352225        -1.212562
 H        -2.224660         3.862901         1.204692
 H        -0.866660         4.411064        -0.751755
 H        -0.469331         5.333685         0.736594
 H         1.779349         2.223413         1.459533
 H         1.224928         3.587002         2.265310
 H        -0.572377         2.243204         2.762328
