19
Iteration:  4772charge 0 multiplicity 1
 O         0.370235         0.304803         0.276688
 C        -0.736533         1.139192         0.611339
 C        -2.199535         0.855253         0.694972
 C        -1.652250         1.968960        -0.323524
 C        -1.332084         3.293562         0.506335
 C        -0.320937         4.341383         0.108653
 O         0.934184         4.182984         0.766037
 C         1.067013         2.924026         1.487592
 C        -0.365362         2.350992         1.483650
 H        -0.055178        -0.318805        -0.435139
 H        -2.426074         0.047394         0.009389
 H        -2.962351         1.215946         1.580974
 H        -1.779866         1.922352        -1.384820
 H        -2.328252         3.698396         0.913526
 H        -0.120198         4.097003        -0.954060
 H        -0.679095         5.435813         0.268875
 H         1.777065         2.218303         1.042298
 H         1.552643         2.951972         2.445373
 H        -0.756101         2.233190         2.511077
