19
Iteration:   964charge 0 multiplicity 1
 O         0.312445         0.323345         0.246006
 C        -0.677440         1.231256         0.678491
 C        -2.099887         0.987211         0.532240
 C        -1.397681         2.077405        -0.239372
 C        -1.365427         3.296481         0.794372
 C        -0.495014         4.395711         0.341481
 O         0.816411         3.780334         0.265108
 C         1.047174         2.965990         1.312461
 C        -0.378292         2.360123         1.669471
 H         0.094948        -0.628405         0.603923
 H        -2.447456         0.046417         0.091238
 H        -2.836712         1.325700         1.373584
 H        -1.137047         2.241833        -1.305705
 H        -2.329489         3.653409         1.115329
 H        -0.702691         4.806477        -0.631934
 H        -0.464121         5.278875         0.989728
 H         1.810807         2.080947         0.937330
 H         1.438950         3.431719         2.255521
 H        -0.480759         2.108962         2.809068
