19
Iteration:  1757
 O         0.303637         0.252275         0.303961
 C        -0.721296         1.169024         0.713867
 C        -2.094212         0.894782         0.408954
 C        -1.576353         2.217480        -0.169621
 C        -1.339513         3.259572         0.846428
 C        -0.401217         4.384932         0.352090
 O         0.994043         3.813640         0.162537
 C         0.959772         3.000337         1.372924
 C        -0.400071         2.399637         1.615120
 H         0.244390        -0.522323         0.809775
 H        -2.230798         0.147534        -0.395370
 H        -2.998229         0.923125         1.103681
 H        -1.590144         2.303946        -1.218260
 H        -2.205815         3.780866         1.431706
 H        -0.580391         4.749586        -0.717705
 H        -0.535829         5.199605         1.142678
 H         1.952518         2.471906         1.267509
 H         1.172299         3.637942         2.255294
 H        -0.502783         2.115117         2.663824
