19
Iteration:  1048charge 0 multiplicity 1
 O         0.309053         0.330367         0.000183
 C        -0.569191         1.159325         0.609005
 C        -2.122550         0.996617         0.796745
 C        -1.483587         1.996881        -0.149739
 C        -1.363638         3.295355         0.695957
 C        -0.394405         4.419033         0.169104
 O         0.894304         3.839309         0.373172
 C         0.932833         2.943154         1.522508
 C        -0.413367         2.394203         1.612741
 H         0.336118        -0.443926         0.453185
 H        -2.669770         0.314003         0.181499
 H        -2.597240         1.242100         1.773160
 H        -1.648073         1.897916        -1.277417
 H        -2.303926         3.865840         1.105785
 H        -0.487748         4.499640        -0.954851
 H        -0.479738         5.412342         0.727267
 H         1.607715         2.179917         1.202102
 H         1.131100         3.428202         2.532996
 H        -0.560496         2.208427         2.688988
