19
Iteration:  3499charge 0 multiplicity 1
 O         0.143696         0.022488         0.307479
 C        -0.670119         1.076100         0.606662
 C        -2.216497         0.949601         0.574020
 C        -1.529651         1.991839        -0.328737
 C        -1.213975         3.234474         0.608839
 C        -0.389787         4.421240         0.087839
 O         0.906853         4.259282         0.712784
 C         1.044238         3.004322         1.456445
 C        -0.316352         2.354190         1.516863
 H         1.058412         0.257092        -0.078483
 H        -2.567818        -0.021635         0.196389
 H        -2.795891         1.232949         1.452314
 H        -1.798335         1.969222        -1.381332
 H        -2.177844         3.527304         1.083862
 H        -0.343299         4.365607        -0.986508
 H        -0.898044         5.404277         0.476122
 H         1.996463         2.502690         1.025444
 H         1.391137         3.450365         2.545411
 H        -0.562189         2.196395         2.581925
