19
Iteration:   950
 O         0.303993         0.393655         0.305707
 C        -0.689048         1.205705         0.779801
 C        -2.166084         0.916372         0.493533
 C        -1.483065         2.061640        -0.263674
 C        -1.330039         3.212971         0.708636
 C        -0.416333         4.466366         0.416479
 O         0.870194         3.868785         0.140812
 C         1.023802         2.891074         1.367983
 C        -0.344579         2.371167         1.661438
 H         0.083114        -0.482024         0.352690
 H        -2.219720        -0.071194        -0.044879
 H        -2.882395         1.146054         1.249372
 H        -1.405475         2.011663        -1.367343
 H        -2.310230         3.436557         1.293053
 H        -0.724459         5.112358        -0.436801
 H        -0.441692         5.020969         1.352228
 H         1.703672         2.088987         1.033100
 H         1.571715         3.469572         2.146294
 H        -0.685568         2.343652         2.791389
