19
Iteration:  2604
 O         0.244073         0.240846         0.189980
 C        -0.649409         1.237157         0.646624
 C        -2.101950         0.974062         0.535198
 C        -1.541036         2.073310        -0.196785
 C        -1.353382         3.299176         0.800922
 C        -0.433434         4.256550         0.172759
 O         0.894736         3.761714         0.285439
 C         1.006767         3.096381         1.559162
 C        -0.324236         2.393399         1.652062
 H         1.015760         0.883609         0.132948
 H        -2.395032         0.063178        -0.033630
 H        -2.654690         1.050963         1.486918
 H        -1.779021         2.210881        -1.233717
 H        -2.262495         3.605756         1.274258
 H        -0.685707         4.447112        -0.928616
 H        -0.462830         5.243217         0.665313
 H         1.817047         2.382823         1.442734
 H         1.174556         3.829455         2.371517
 H        -0.620312         2.045073         2.664167
