19
Iteration:   203
 O         0.331727         0.524448         0.031758
 C        -0.698451         1.159044         0.730191
 C        -2.174428         0.761544         0.641419
 C        -1.662852         2.020538        -0.085006
 C        -1.321096         3.345129         0.768611
 C        -0.295379         4.359185         0.187701
 O         0.952162         3.744940         0.193303
 C         0.974632         3.043542         1.543442
 C        -0.384921         2.395253         1.648906
 H         0.384696        -0.454929         0.393609
 H        -2.412266        -0.152716         0.110776
 H        -2.845173         1.041677         1.510192
 H        -1.459614         1.967583        -1.116223
 H        -2.130863         3.784134         1.304058
 H        -0.518437         4.650754        -0.920157
 H        -0.336141         5.200559         0.856290
 H         1.850257         2.348358         1.490991
 H         1.146578         3.804841         2.334252
 H        -0.858781         2.265325         2.690513
