19
Iteration:  1725
 O         0.360777         0.328233         0.367228
 C        -0.691791         1.239819         0.578929
 C        -2.064614         0.990324         0.463315
 C        -1.508289         2.191325        -0.221900
 C        -1.318747         3.312425         0.827281
 C        -0.448362         4.343353         0.318146
 O         0.825562         3.704803         0.241003
 C         1.014441         2.950689         1.392597
 C        -0.358943         2.337305         1.589648
 H        -0.056027        -0.546578         0.802475
 H        -2.463476         0.267447        -0.300967
 H        -2.811153         1.162745         1.392786
 H        -1.664246         2.567162        -1.204847
 H        -2.294426         3.579085         1.422686
 H        -0.563083         4.706304        -0.782513
 H        -0.579308         5.257520         0.987180
 H         1.857559         2.213328         1.106767
 H         1.315765         3.609452         2.353760
 H        -0.591585         2.042330         2.600877
