19
Iteration:  3585
 O         0.222059         0.138123         0.430269
 C        -0.731945         1.095357         0.664868
 C        -2.244903         0.897733         0.441829
 C        -1.608012         2.073706        -0.231713
 C        -1.276819         3.291859         0.665981
 C        -0.296284         4.240167         0.013417
 O         0.812436         4.297570         0.904697
 C         1.105601         2.943529         1.208017
 C        -0.262734         2.310540         1.482076
 H         1.009646         0.602361         0.694847
 H        -2.433996         0.097072        -0.318787
 H        -3.170162         0.970030         1.057684
 H        -1.462537         2.323643        -1.289433
 H        -2.046536         3.692903         1.291444
 H        -0.082404         3.729042        -0.984121
 H        -0.562416         5.374836        -0.019196
 H         1.178792         2.412073         0.263135
 H         1.873019         3.029003         1.940272
 H        -0.472463         2.341518         2.590089
