19
Iteration:  1025
 O         0.218812         0.320390         0.070310
 C        -0.657671         1.196511         0.650143
 C        -2.179235         0.863269         0.659808
 C        -1.645407         2.022645        -0.193139
 C        -1.297351         3.192299         0.708334
 C        -0.408715         4.384553         0.234443
 O         1.051674         3.887209         0.314927
 C         1.042934         3.115602         1.538836
 C        -0.365512         2.375028         1.586343
 H         0.351571        -0.469999         0.742483
 H        -2.281742        -0.133447         0.186068
 H        -2.815227         1.022128         1.484465
 H        -1.865441         2.068197        -1.293416
 H        -2.161322         3.761034         1.198390
 H        -0.601226         4.804029        -0.795072
 H        -0.564206         5.135568         1.062331
 H         1.825721         2.452372         1.473779
 H         1.099407         3.820355         2.437118
 H        -0.568674         2.193580         2.600572
