19
Iteration:  1632
 O         0.243251         0.265639         0.138953
 C        -0.648096         1.167681         0.590942
 C        -2.166052         0.991356         0.636973
 C        -1.554368         2.179281        -0.194223
 C        -1.301203         3.261776         0.764237
 C        -0.437757         4.337063         0.063445
 O         0.932667         3.940761         0.426643
 C         0.999353         2.986336         1.555694
 C        -0.306995         2.209602         1.584597
 H         0.721706        -0.212206         0.798714
 H        -2.405724         0.162432         0.097167
 H        -2.736582         1.042955         1.458913
 H        -1.946703         2.302846        -1.255905
 H        -2.018714         3.800645         1.336050
 H        -0.635228         4.297036        -0.962977
 H        -0.502245         5.441159         0.438889
 H         1.904548         2.346419         1.452374
 H         1.151288         3.699138         2.454103
 H        -0.754407         1.992773         2.598364
