19
Iteration:  2586charge 0 multiplicity 1
 O         0.279563         0.203474         0.259404
 C        -0.607119         1.215714         0.624814
 C        -2.063734         0.809581         0.559722
 C        -1.766627         2.197143        -0.171062
 C        -1.364671         3.290563         0.782594
 C        -0.375927         4.352015         0.162995
 O         0.983444         3.840081         0.294384
 C         1.008998         3.046580         1.469913
 C        -0.418808         2.357675         1.657533
 H         1.246547         0.494199         0.061752
 H        -2.249329         0.013341        -0.178253
 H        -2.874430         0.781055         1.363111
 H        -1.810611         2.368498        -1.238163
 H        -2.302935         3.952653         1.262808
 H        -0.478123         4.567491        -0.877658
 H        -0.444194         5.329633         0.676624
 H         1.843065         2.354389         1.446768
 H         1.186610         3.707081         2.366052
 H        -0.662320         2.267086         2.709068
