19
Iteration:  3231charge 0 multiplicity 1
 O         0.275239         0.266163         0.301056
 C        -0.649530         1.183281         0.640369
 C        -2.151970         0.961119         0.372236
 C        -1.541809         2.116291        -0.274728
 C        -1.242222         3.235450         0.766843
 C        -0.434411         4.326857         0.163036
 O         0.925822         3.959755         0.410119
 C         0.981953         3.058038         1.581872
 C        -0.346035         2.289282         1.636272
 H        -0.118481        -0.629982         0.158899
 H        -2.250465         0.077840        -0.259922
 H        -2.906722         0.883863         1.173183
 H        -1.466480         2.140316        -1.351907
 H        -2.156079         3.647740         1.272324
 H        -0.684818         4.559891        -0.890594
 H        -0.601397         5.307657         0.617729
 H         1.860621         2.550226         1.601005
 H         0.942422         3.678180         2.556604
 H        -0.610303         1.904102         2.607017
