19
Iteration:  2648
 O         0.328396         0.271710         0.260825
 C        -0.650515         1.188411         0.634459
 C        -2.097478         0.881087         0.602028
 C        -1.600248         2.069081        -0.140800
 C        -1.376246         3.284069         0.704610
 C        -0.363525         4.382671         0.261487
 O         0.928695         3.717773         0.245627
 C         1.029164         3.088402         1.540728
 C        -0.424547         2.464345         1.600159
 H         0.719900         0.366984        -0.706690
 H        -2.330740         0.118593        -0.169016
 H        -2.964225         0.879720         1.326982
 H        -1.817524         2.197428        -1.182858
 H        -2.231010         3.604052         1.203940
 H        -0.565713         4.859874        -0.775714
 H        -0.550743         5.190128         1.020439
 H         1.787063         2.277175         1.307932
 H         1.144806         3.852178         2.328779
 H        -0.888764         2.289486         2.605501
