19
Iteration:  2459charge 0 multiplicity 1
 O         0.333996         0.225904         0.296957
 C        -0.638122         1.265228         0.562163
 C        -2.153759         0.923873         0.533599
 C        -1.664617         2.156917        -0.194730
 C        -1.338043         3.255167         0.813722
 C        -0.414873         4.382714         0.186253
 O         0.942193         3.812628         0.298427
 C         0.963851         2.956639         1.425773
 C        -0.368285         2.350853         1.668453
 H         1.250703         0.747404         0.393291
 H        -2.334387         0.031336         0.025974
 H        -2.831793         0.997016         1.337140
 H        -1.839469         2.306247        -1.248384
 H        -2.305876         3.791594         1.332781
 H        -0.586856         4.497012        -0.888534
 H        -0.475874         5.350206         0.679011
 H         1.887329         2.274231         1.293895
 H         1.165589         3.556138         2.341075
 H        -0.374963         2.100395         2.753246
