19
Iteration:  3786charge 0 multiplicity 1
 O         0.083342         0.044759         0.311058
 C        -0.662689         1.121493         0.563053
 C        -2.207637         0.899594         0.499301
 C        -1.545962         2.087669        -0.381893
 C        -1.304500         3.245795         0.676526
 C        -0.281865         4.241011         0.071989
 O         0.887697         4.339873         0.852136
 C         1.055885         3.049508         1.450870
 C        -0.289316         2.309991         1.539142
 H         0.896185         0.343696        -0.237782
 H        -2.274150        -0.116776         0.157715
 H        -2.777211         1.088691         1.310984
 H        -1.919340         2.375060        -1.388329
 H        -2.068499         3.835913         1.043447
 H         0.055240         3.809710        -0.948894
 H        -0.748750         5.252960        -0.077734
 H         1.845581         2.457790         1.007871
 H         1.497076         3.051271         2.456639
 H        -0.609460         2.067203         2.549098
