19
Iteration:   185
 O         0.329340         0.511191         0.141737
 C        -0.732287         1.291700         0.648870
 C        -2.099900         0.774081         0.654310
 C        -1.691917         2.089062        -0.165366
 C        -1.372069         3.255588         0.755851
 C        -0.353287         4.283220         0.258606
 O         1.015348         3.695403         0.209800
 C         1.006938         3.034050         1.381094
 C        -0.420945         2.438174         1.701426
 H         0.533538        -0.271278         0.812189
 H        -2.118565         0.073549        -0.146344
 H        -2.735129         0.525117         1.445789
 H        -2.033761         2.234295        -1.197230
 H        -2.276280         3.852229         1.170998
 H        -0.469787         4.759631        -0.648533
 H        -0.301955         5.123335         1.067483
 H         1.740507         2.296106         1.455946
 H         1.249324         3.651808         2.320668
 H        -0.529557         2.234717         2.754621
