19
Iteration:  4654charge 0 multiplicity 1
 O         0.219643         0.095684         0.300538
 C        -0.657941         1.124779         0.634521
 C        -2.169610         0.970990         0.654149
 C        -1.582620         1.950036        -0.343633
 C        -1.273852         3.201258         0.475128
 C        -0.259881         4.462151         0.046885
 O         0.815001         4.329390         0.974559
 C         1.060845         2.979625         1.291109
 C        -0.344179         2.310115         1.457215
 H        -0.249950        -0.761913         0.284855
 H        -2.561988         0.077995         0.355547
 H        -2.588097         1.223346         1.631309
 H        -1.503013         1.825762        -1.406107
 H        -2.273764         3.586740         0.811231
 H        -0.023741         4.452842        -1.036525
 H        -0.897611         5.288113         0.433137
 H         1.773078         2.443461         0.592793
 H         1.557379         2.772760         2.318795
 H        -0.450656         2.091445         2.537980
