19
Iteration:  4655charge 0 multiplicity 1
 O         0.220874         0.093561         0.299567
 C        -0.658444         1.126570         0.632486
 C        -2.167737         0.979669         0.657111
 C        -1.575269         1.950155        -0.345069
 C        -1.267005         3.202160         0.476113
 C        -0.262954         4.460205         0.047433
 O         0.811956         4.330693         0.973014
 C         1.056467         2.974678         1.294686
 C        -0.348617         2.306432         1.452510
 H        -0.272283        -0.794930         0.247030
 H        -2.553017         0.072426         0.375958
 H        -2.579899         1.194417         1.627885
 H        -1.539627         1.810581        -1.404265
 H        -2.225921         3.592651         0.815341
 H        -0.047195         4.468578        -1.033052
 H        -0.902889         5.292097         0.401661
 H         1.747114         2.465003         0.618246
 H         1.597031         2.770147         2.330774
 H        -0.456702         2.131668         2.584635
