19
Iteration:   294
 O         0.289095         0.280305         0.150888
 C        -0.648412         1.156953         0.716311
 C        -2.186282         0.957683         0.649070
 C        -1.490266         2.021554        -0.232034
 C        -1.386454         3.234786         0.724960
 C        -0.474253         4.431310         0.302178
 O         0.939918         3.917074         0.298457
 C         1.043476         2.990754         1.386625
 C        -0.311752         2.389322         1.630000
 H         0.113685        -0.668927         0.406178
 H        -2.463044         0.032002         0.130219
 H        -2.864988         1.233133         1.387205
 H        -1.652673         2.027386        -1.371869
 H        -2.302411         3.703976         1.172845
 H        -0.527293         4.616179        -0.732912
 H        -0.569145         5.377510         0.888565
 H         1.796326         2.268357         1.196532
 H         1.346436         3.500576         2.323719
 H        -0.479111         2.339119         2.769884
