19
Iteration:  3001charge 0 multiplicity 1
 O         0.271312         0.210908         0.213330
 C        -0.724509         1.159925         0.570545
 C        -2.193447         0.963909         0.395556
 C        -1.522925         2.127859        -0.240867
 C        -1.336845         3.243747         0.806149
 C        -0.387253         4.301270         0.281370
 O         0.950243         3.818334         0.261715
 C         0.991846         3.201955         1.592539
 C        -0.332118         2.285396         1.684895
 H         0.947317         0.481786         0.751540
 H        -2.493346         0.066466        -0.147678
 H        -2.845908         1.054376         1.292018
 H        -1.457385         2.129755        -1.338202
 H        -2.311371         3.632593         1.185439
 H        -0.469883         4.670905        -0.749949
 H        -0.403268         5.259265         0.858311
 H         1.859233         2.567032         1.813552
 H         0.735111         3.958672         2.363608
 H        -0.432940         2.065514         2.769542
