19
Iteration:  3347
 O         0.249736         0.213136         0.195953
 C        -0.639504         1.287922         0.689929
 C        -2.067019         0.868350         0.429112
 C        -1.498096         2.112691        -0.245430
 C        -1.331097         3.238306         0.826420
 C        -0.386275         4.346004         0.151143
 O         0.952179         3.788659         0.316977
 C         0.871229         3.098075         1.566305
 C        -0.454663         2.354491         1.720228
 H         1.102299         0.686117         0.213203
 H        -2.238071         0.078283        -0.292477
 H        -2.882624         1.154725         1.121862
 H        -1.358676         2.382487        -1.279396
 H        -2.319214         3.626034         1.395424
 H        -0.545350         4.609632        -0.904445
 H        -0.572428         5.313334         0.605028
 H         1.824939         2.361969         1.631964
 H         1.117226         3.825827         2.381762
 H        -0.686699         2.024118         2.757657
