19
Iteration:  4901
 O         0.338507         0.266038         0.297784
 C        -0.663198         1.198025         0.582682
 C        -2.092936         0.933753         0.511064
 C        -1.490962         2.072315        -0.301894
 C        -1.401564         3.302730         0.583564
 C        -0.392096         4.413729         0.341098
 O         0.930010         3.880325         0.395038
 C         0.936610         3.000806         1.534438
 C        -0.404312         2.346809         1.533064
 H         0.305946        -0.408171         0.957531
 H        -2.289858         0.042791        -0.037376
 H        -2.753987         1.043273         1.401146
 H        -1.384502         2.078935        -1.364917
 H        -2.211447         3.532919         1.201096
 H        -0.532902         4.775925        -0.692874
 H        -0.624366         5.225002         1.018282
 H         1.657328         2.182848         1.413998
 H         0.919926         3.615548         2.471874
 H        -0.665806         2.127558         2.620933
