19
Iteration:  3437
 O         0.316612         0.308604         0.300255
 C        -0.745734         1.173579         0.717314
 C        -2.224539         0.891429         0.491900
 C        -1.610974         2.057046        -0.256722
 C        -1.289082         3.223024         0.674991
 C        -0.336131         4.292591         0.173652
 O         0.987557         4.101856         0.560619
 C         1.008398         2.919343         1.402753
 C        -0.477549         2.359256         1.580949
 H         1.058860         0.877461         0.045598
 H        -2.091690         0.003774        -0.188104
 H        -2.952556         0.872512         1.327091
 H        -1.525322         1.894499        -1.358607
 H        -2.199002         3.788627         1.067932
 H        -0.236414         4.206205        -0.961651
 H        -0.672412         5.248860         0.317420
 H         1.773859         2.167506         1.089158
 H         1.348765         3.028522         2.338780
 H        -0.657844         2.129814         2.634743
