19
Iteration:  1099charge 0 multiplicity 1
 O         0.302871         0.405720         0.194522
 C        -0.721617         1.171203         0.654072
 C        -2.167957         0.799905         0.496182
 C        -1.692252         2.148649        -0.105652
 C        -1.349684         3.286923         0.840689
 C        -0.448253         4.377732         0.209011
 O         1.041946         3.764170         0.192337
 C         1.058993         3.064883         1.489844
 C        -0.318467         2.338149         1.660750
 H         0.359859        -0.487814         0.727576
 H        -2.044873         0.056831        -0.331493
 H        -2.993439         0.563887         1.071679
 H        -1.876309         2.489991        -1.164246
 H        -1.971877         3.704379         1.537285
 H        -0.583343         4.736761        -0.836518
 H        -0.365766         5.265445         0.797935
 H         1.930600         2.414510         1.492938
 H         0.996514         3.731885         2.343803
 H        -0.683808         2.329218         2.715495
