19
Iteration:  1478
 O         0.305388         0.286351         0.298525
 C        -0.631505         1.219816         0.562875
 C        -2.167314         1.032368         0.558061
 C        -1.507003         2.084281        -0.265100
 C        -1.324819         3.222151         0.747266
 C        -0.468855         4.450762         0.355787
 O         0.907762         3.867957         0.246777
 C         1.012278         2.935491         1.390967
 C        -0.362993         2.268778         1.608413
 H         0.272152        -0.149198         1.101995
 H        -2.610511         0.165028         0.073769
 H        -2.591173         1.316018         1.435535
 H        -1.616364         2.116846        -1.323568
 H        -2.317944         3.466316         1.224848
 H        -0.795596         4.880867        -0.582659
 H        -0.416497         5.205041         1.143521
 H         1.745305         2.175132         1.193991
 H         1.418681         3.347811         2.265486
 H        -0.482952         2.216342         2.722028
