19
Iteration:   188charge 0 multiplicity 1
 O         0.340922         0.502259         0.120955
 C        -0.740431         1.303429         0.662935
 C        -2.129143         0.747590         0.668787
 C        -1.682165         2.089805        -0.159347
 C        -1.345481         3.249766         0.754417
 C        -0.333529         4.282275         0.263694
 O         1.008651         3.704029         0.217823
 C         1.001128         3.047266         1.390746
 C        -0.437670         2.438438         1.703783
 H         0.486979        -0.207623         0.649097
 H        -2.132095        -0.058738        -0.144377
 H        -2.854998         0.537008         1.477520
 H        -1.979136         2.233113        -1.245497
 H        -2.187357         3.890447         1.104009
 H        -0.556138         4.808954        -0.680189
 H        -0.292628         5.100787         0.982979
 H         1.822705         2.289671         1.478522
 H         1.190822         3.671055         2.259186
 H        -0.471768         2.306748         2.758384
