19
Iteration:  1292charge 0 multiplicity 1
 O         0.367952         0.395800         0.191221
 C        -0.658863         1.182120         0.628208
 C        -2.118455         0.946256         0.597655
 C        -1.611657         2.135039        -0.151342
 C        -1.358979         3.296671         0.755462
 C        -0.410301         4.367346         0.216560
 O         0.904203         3.694484         0.250392
 C         1.013620         3.008398         1.503191
 C        -0.399365         2.344338         1.581562
 H         0.520009        -0.336074         0.821181
 H        -2.423248         0.290546        -0.183665
 H        -2.831259         0.999165         1.420303
 H        -1.702232         2.189018        -1.270827
 H        -2.237546         3.759136         1.361320
 H        -0.595143         4.647532        -0.796107
 H        -0.523839         5.205936         0.984545
 H         1.931273         2.364562         1.557165
 H         1.223224         3.668376         2.350213
 H        -0.575148         2.175623         2.594851
