19
Iteration:  4647
 O         0.226985         0.123984         0.308309
 C        -0.690843         1.108754         0.612862
 C        -2.171992         0.909165         0.646219
 C        -1.594498         1.944940        -0.328011
 C        -1.322876         3.215057         0.483208
 C        -0.283235         4.423446         0.082648
 O         0.848249         4.332111         0.979433
 C         1.086125         2.971608         1.253127
 C        -0.298876         2.345964         1.452905
 H        -0.223065        -0.779243         0.597885
 H        -2.640052        -0.004504         0.124870
 H        -2.719669         1.453115         1.433765
 H        -1.444784         1.902907        -1.403898
 H        -2.235298         3.584485         0.858817
 H         0.124968         4.408824        -0.931954
 H        -0.717963         5.383720         0.380968
 H         1.671475         2.487165         0.537381
 H         1.480196         3.034054         2.321353
 H        -0.575090         1.991133         2.551081
