19
Iteration:  2341
 O         0.350192         0.400422         0.266851
 C        -0.707768         1.247511         0.722872
 C        -2.175515         0.883169         0.501242
 C        -1.558547         1.970360        -0.193528
 C        -1.368274         3.257808         0.746571
 C        -0.295872         4.419848         0.269025
 O         0.936254         3.875018         0.271366
 C         1.037261         2.968088         1.402627
 C        -0.455258         2.359502         1.665863
 H        -0.008983        -0.437054        -0.169714
 H        -2.326324        -0.035145        -0.098320
 H        -2.932505         1.019807         1.340396
 H        -1.677289         2.050948        -1.245294
 H        -2.225522         3.687011         1.090061
 H        -0.651120         4.817350        -0.727355
 H        -0.400159         5.193151         1.070430
 H         1.708574         2.191577         1.210540
 H         1.402105         3.552723         2.308926
 H        -0.568160         2.056399         2.724004
