19
Iteration:  3222charge 0 multiplicity 1
 O         0.351138         0.241574         0.289913
 C        -0.678711         1.171990         0.626568
 C        -2.217313         0.841949         0.382725
 C        -1.579191         2.130960        -0.288570
 C        -1.310707         3.254125         0.704497
 C        -0.383791         4.372310         0.218867
 O         0.963998         3.972774         0.422031
 C         0.999511         3.040918         1.561504
 C        -0.379669         2.318189         1.613639
 H         0.036517        -0.691056         0.486642
 H        -2.383909        -0.049979        -0.208362
 H        -2.978493         1.138265         1.116236
 H        -1.600914         2.305581        -1.352681
 H        -2.076839         3.728326         1.494283
 H        -0.561840         4.496475        -0.809083
 H        -0.636482         5.261716         0.836757
 H         1.993433         2.593840         1.518798
 H         1.066130         3.654789         2.518645
 H        -0.683773         2.340691         2.665313
