19
Iteration:  4973charge 0 multiplicity 1
 O         0.469498         0.363164         0.460186
 C        -0.668460         1.215945         0.653039
 C        -2.140139         0.906930         0.391241
 C        -1.421248         2.173887        -0.270500
 C        -1.442105         3.289404         0.747445
 C        -0.433527         4.386721         0.318536
 O         0.895822         3.726253         0.262897
 C         0.982432         2.912441         1.467914
 C        -0.475160         2.426365         1.623489
 H         0.294638        -0.142333        -0.355016
 H        -2.346549         0.313398        -0.516248
 H        -2.919955         0.829723         1.150422
 H        -1.444933         2.235254        -1.360537
 H        -2.526468         3.578873         1.003907
 H        -0.690555         4.838066        -0.684233
 H        -0.463711         5.093445         1.235733
 H         1.645759         2.082791         1.290602
 H         1.172225         3.498121         2.353568
 H        -0.767250         2.274580         2.637728
