19
Iteration:  1166charge 0 multiplicity 1
 O         0.392914         0.271150         0.279989
 C        -0.704923         1.211948         0.648917
 C        -2.217807         0.889265         0.552302
 C        -1.540765         2.089376        -0.208721
 C        -1.368547         3.293708         0.794918
 C        -0.375503         4.426186         0.327175
 O         0.945166         3.867548         0.264220
 C         1.012875         2.968173         1.321843
 C        -0.381935         2.368912         1.582432
 H         0.218367        -0.481744         0.814423
 H        -2.494128         0.066138        -0.036487
 H        -2.976899         1.044510         1.327105
 H        -1.641299         2.206475        -1.321494
 H        -2.319261         3.537055         1.146885
 H        -0.693232         5.108476        -0.536640
 H        -0.448358         5.116860         1.172634
 H         1.734634         2.258233         1.098184
 H         1.192663         3.611198         2.207648
 H        -0.444296         2.116599         2.677934
