19
Iteration:   708
 O         0.325830         0.377708         0.246638
 C        -0.653343         1.232061         0.590541
 C        -2.192090         0.901332         0.578473
 C        -1.596278         2.094119        -0.181756
 C        -1.322334         3.255648         0.809661
 C        -0.400635         4.365432         0.269851
 O         0.938210         3.831102         0.251824
 C         1.004342         2.989246         1.389745
 C        -0.354512         2.279412         1.610554
 H         0.289636        -0.373001         0.757983
 H        -2.571746         0.046968         0.066031
 H        -2.794081         1.246341         1.377200
 H        -1.657774         2.213092        -1.330629
 H        -2.081949         3.780468         1.381816
 H        -0.673162         4.757927        -0.768380
 H        -0.386518         5.242025         1.010471
 H         1.856305         2.373356         1.232048
 H         1.066963         3.724298         2.278305
 H        -0.480118         2.012259         2.697113
