19
Iteration:   114
 O         0.187038         0.249712         0.212670
 C        -0.697763         1.243715         0.732984
 C        -2.142075         0.840191         0.501584
 C        -1.494302         2.043237        -0.215832
 C        -1.318709         3.204090         0.769380
 C        -0.415964         4.430663         0.351886
 O         0.876701         3.855296         0.225687
 C         1.042872         3.178863         1.345885
 C        -0.267533         2.404713         1.682695
 H        -0.037413        -0.658094         0.596723
 H        -2.098392        -0.187879        -0.035359
 H        -2.955483         0.813701         1.297178
 H        -1.458326         1.886624        -1.331134
 H        -2.156302         3.444789         1.329672
 H        -0.694515         4.920690        -0.719760
 H        -0.405091         5.228557         1.130590
 H         1.830535         2.306024         1.161665
 H         1.519001         3.783814         2.182694
 H        -0.434923         2.413682         2.834120
