19
Iteration:  2160charge 0 multiplicity 1
 O         0.270224         0.350919         0.119483
 C        -0.714181         1.265208         0.744143
 C        -2.087598         0.826685         0.484915
 C        -1.558059         2.057705        -0.177766
 C        -1.322932         3.279416         0.838164
 C        -0.355500         4.317494         0.251743
 O         0.944321         3.800019         0.269356
 C         1.009909         3.042839         1.427475
 C        -0.445391         2.440651         1.713896
 H         0.112597        -0.499407         0.405992
 H        -2.208491         0.074919        -0.274751
 H        -2.912268         0.886434         1.179033
 H        -1.218649         2.114263        -1.174084
 H        -2.226223         3.870837         1.308444
 H        -0.575232         4.472802        -0.825405
 H        -0.601511         5.276589         0.793543
 H         1.817144         2.173189         1.376501
 H         1.183485         3.769238         2.264951
 H        -0.507339         2.459999         2.819893
