19
Iteration:  1521charge 0 multiplicity 1
 O         0.255768         0.431528         0.266723
 C        -0.728593         1.245050         0.726521
 C        -2.089347         0.781201         0.392440
 C        -1.492036         2.142779        -0.181046
 C        -1.399641         3.305894         0.902406
 C        -0.390641         4.393915         0.278304
 O         0.956156         3.745514         0.137162
 C         1.005422         2.929455         1.385216
 C        -0.354646         2.424042         1.738255
 H         0.061838        -0.533764         0.384049
 H        -2.257843         0.012659        -0.391797
 H        -2.830655         0.802022         1.097753
 H        -1.472739         2.273704        -1.240980
 H        -2.211455         3.721631         1.491768
 H        -0.739035         4.759293        -0.694587
 H        -0.416414         5.199102         1.043828
 H         1.807249         2.231800         1.411016
 H         1.281936         3.666867         2.219896
 H        -0.606997         2.142474         2.796654
