19
Iteration:  3983
 O         0.218381         0.149574         0.338301
 C        -0.703695         1.140259         0.582744
 C        -2.130362         0.969339         0.557808
 C        -1.509961         1.985127        -0.387285
 C        -1.235982         3.251581         0.500672
 C        -0.374442         4.450902         0.142347
 O         0.914931         4.198170         0.882093
 C         0.968783         2.859340         1.360397
 C        -0.349859         2.343079         1.465353
 H         0.438750        -0.267360         1.174703
 H        -2.540659         0.199169         0.007465
 H        -2.581426         1.135311         1.460129
 H        -1.769041         1.996159        -1.455519
 H        -2.261877         3.561089         1.032758
 H        -0.172081         4.565562        -0.979458
 H        -0.920505         5.390653         0.499026
 H         1.661300         2.410240         0.690762
 H         1.354424         3.017634         2.368370
 H        -0.703155         2.211539         2.513714
