19
Iteration:  1726
 O         0.363871         0.321200         0.372941
 C        -0.693559         1.238757         0.570908
 C        -2.072399         0.982671         0.452418
 C        -1.506662         2.200815        -0.212386
 C        -1.317733         3.310314         0.835844
 C        -0.442102         4.350956         0.310279
 O         0.818620         3.703409         0.242079
 C         1.015463         2.952008         1.393613
 C        -0.358664         2.339086         1.590036
 H        -0.029622        -0.528878         0.812219
 H        -2.466638         0.252905        -0.285691
 H        -2.826464         1.155405         1.396870
 H        -1.691936         2.558177        -1.228147
 H        -2.261499         3.603145         1.432740
 H        -0.542126         4.714507        -0.788862
 H        -0.581014         5.233191         0.981075
 H         1.858513         2.272923         1.094832
 H         1.331251         3.602808         2.360984
 H        -0.587085         2.016764         2.581453
