19
Iteration:  2861charge 0 multiplicity 1
 O         0.267235         0.208793         0.174992
 C        -0.577983         1.224929         0.619460
 C        -2.176407         1.052673         0.498706
 C        -1.533357         2.075902        -0.259582
 C        -1.284694         3.197139         0.707214
 C        -0.467820         4.317415         0.360678
 O         0.929959         3.730582         0.238565
 C         0.929826         3.147391         1.541017
 C        -0.337927         2.386965         1.711937
 H         1.119608         0.113884         0.715480
 H        -2.528592         0.167712         0.023317
 H        -2.791014         1.366315         1.305662
 H        -1.660788         2.051206        -1.322392
 H        -2.223284         3.584663         1.062163
 H        -0.737316         4.662117        -0.565973
 H        -0.571901         5.156157         1.068417
 H         1.853362         2.476740         1.541177
 H         1.085522         3.975712         2.147180
 H        -0.709218         2.348048         2.735768
