19
Iteration:  4017
 O         0.281538         0.253982         0.333863
 C        -0.761797         1.109216         0.658744
 C        -2.214429         0.871726         0.393956
 C        -1.545393         2.021112        -0.293227
 C        -1.265646         3.280684         0.650922
 C        -0.303334         4.316834         0.029323
 O         0.911435         4.263795         0.937009
 C         1.017847         2.910314         1.249703
 C        -0.380051         2.400148         1.592179
 H         0.037430        -0.700107         0.644703
 H        -2.365317         0.008198        -0.230139
 H        -2.882745         0.990442         1.202928
 H        -1.523344         1.942140        -1.375040
 H        -2.262073         3.566181         1.184747
 H        -0.100708         3.897255        -0.979962
 H        -0.562825         5.409359        -0.115563
 H         1.520876         2.224761         0.602005
 H         1.646885         2.913521         2.188375
 H        -0.551896         2.336849         2.678899
