19
Iteration:   163charge 0 multiplicity 1
 O         0.475084         0.375066         0.217536
 C        -0.637970         1.290461         0.594622
 C        -2.108095         0.891377         0.605167
 C        -1.687902         2.179118        -0.155798
 C        -1.346189         3.330824         0.833619
 C        -0.401691         4.366238         0.217310
 O         0.816042         3.680995         0.199888
 C         1.003444         2.894456         1.446289
 C        -0.419779         2.374237         1.610823
 H         0.633569        -0.221511         0.957415
 H        -2.337493         0.007484         0.092696
 H        -2.740833         1.093718         1.421207
 H        -1.696242         2.356732        -1.222196
 H        -2.170834         3.895090         1.407622
 H        -0.704293         4.621486        -0.743056
 H        -0.318423         5.375572         0.757471
 H         1.761441         2.195998         1.300995
 H         1.321237         3.472037         2.371366
 H        -0.617517         2.155832         2.632380
