19
Iteration:  3139charge 0 multiplicity 1
 O         0.346026         0.289312         0.292021
 C        -0.729283         1.173867         0.645141
 C        -2.134565         0.883489         0.319874
 C        -1.517425         2.138063        -0.250475
 C        -1.316872         3.291694         0.859550
 C        -0.344932         4.401080         0.273014
 O         0.938407         3.774532         0.320902
 C         0.920561         3.137215         1.521205
 C        -0.443332         2.303116         1.604087
 H         0.175608        -0.709160         0.583776
 H        -2.180520         0.102331        -0.436655
 H        -2.872063         0.828046         1.142499
 H        -1.430447         2.430260        -1.285527
 H        -2.095267         3.643576         1.444413
 H        -0.686288         4.677848        -0.790498
 H        -0.422806         5.389823         0.738534
 H         1.917918         2.527818         1.493441
 H         0.943014         3.823131         2.420165
 H        -0.497602         2.093619         2.703072
