19
Iteration:  1844
 O         0.176143         0.260024         0.191268
 C        -0.660577         1.233105         0.641538
 C        -2.161440         0.832508         0.520480
 C        -1.688817         2.118943        -0.152983
 C        -1.328770         3.238967         0.746482
 C        -0.327104         4.335259         0.219230
 O         1.021607         3.957735         0.372972
 C         1.061306         3.089013         1.484955
 C        -0.351704         2.377803         1.529038
 H         0.408213        -0.472426         0.771446
 H        -2.238257        -0.056843        -0.067795
 H        -2.849825         0.635079         1.381436
 H        -1.770763         2.097788        -1.224272
 H        -2.169628         3.736045         1.367192
 H        -0.489454         4.374354        -0.906486
 H        -0.540813         5.315022         0.637010
 H         1.865220         2.218911         1.511661
 H         1.171725         3.581385         2.461256
 H        -0.454681         2.161330         2.659767
