19
Iteration:  2824charge 0 multiplicity 1
 O         0.352161         0.307673         0.247076
 C        -0.668655         1.255401         0.686461
 C        -2.115483         0.819556         0.509082
 C        -1.631179         2.122295        -0.206700
 C        -1.279395         3.306342         0.756830
 C        -0.380581         4.438584         0.214584
 O         0.954374         3.863740         0.309732
 C         0.965134         2.944562         1.385312
 C        -0.469100         2.360418         1.668304
 H         0.564671        -0.225782         1.008167
 H        -2.304292         0.143043        -0.367078
 H        -2.848218         0.822646         1.384115
 H        -1.781011         2.170671        -1.309728
 H        -2.083402         3.749107         1.278343
 H        -0.715048         4.604908        -0.877060
 H        -0.491768         5.296486         0.835172
 H         1.705535         2.077055         1.377667
 H         1.171526         3.351542         2.321435
 H        -0.557443         2.079682         2.758663
