19
Iteration:  4771
 O         0.370015         0.307606         0.278272
 C        -0.736736         1.136450         0.615783
 C        -2.195574         0.863948         0.694665
 C        -1.651800         1.974644        -0.318235
 C        -1.328310         3.295133         0.493702
 C        -0.324368         4.336679         0.114586
 O         0.929881         4.181567         0.766403
 C         1.063679         2.917696         1.491362
 C        -0.373130         2.349394         1.477559
 H        -0.065660        -0.302812        -0.449392
 H        -2.402563         0.028394         0.001567
 H        -2.930192         1.201015         1.612097
 H        -1.776086         1.898554        -1.396683
 H        -2.285812         3.713802         0.883027
 H        -0.104197         4.074155        -0.912504
 H        -0.672613         5.432549         0.274251
 H         1.767972         2.241112         1.002266
 H         1.574607         2.979231         2.400814
 H        -0.733011         2.206691         2.546271
