19
Iteration:  3049
 O         0.318746         0.333639         0.326686
 C        -0.630436         1.265227         0.626994
 C        -2.120400         0.828215         0.546456
 C        -1.598094         2.082328        -0.292331
 C        -1.392679         3.297494         0.652895
 C        -0.410269         4.395433         0.281797
 O         1.022073         3.845646         0.407375
 C         0.983827         2.919271         1.512005
 C        -0.473041         2.436114         1.572008
 H         0.442689         0.164258        -0.665506
 H        -2.211375        -0.138778         0.032011
 H        -2.949734         0.903685         1.251263
 H        -1.521158         2.181438        -1.375981
 H        -2.220931         3.628001         1.134484
 H        -0.437282         4.832197        -0.695041
 H        -0.423754         5.222196         1.005949
 H         1.695281         2.018174         1.141303
 H         1.245362         3.297980         2.537988
 H        -0.765973         2.110240         2.588657
