19
Iteration:   843
 O         0.229165         0.216705         0.108367
 C        -0.649347         1.152264         0.629416
 C        -2.095859         0.843233         0.662933
 C        -1.637667         2.057079        -0.197896
 C        -1.416030         3.256181         0.718745
 C        -0.354072         4.451826         0.259623
 O         1.036330         3.893770         0.282083
 C         1.042851         3.126634         1.494134
 C        -0.365871         2.381752         1.622085
 H         0.369294        -0.416436         0.747976
 H        -2.521295         0.006799         0.001077
 H        -2.831422         1.101997         1.455124
 H        -1.809569         1.951484        -1.251466
 H        -2.237394         3.749359         1.156301
 H        -0.652408         4.808230        -0.709812
 H        -0.520835         5.205946         1.106934
 H         1.923890         2.371124         1.476725
 H         0.992923         3.795390         2.345437
 H        -0.631696         2.202864         2.634760
