19
Iteration:  4334charge 0 multiplicity 1
 O         0.220173         0.133393         0.266036
 C        -0.656739         1.135017         0.631027
 C        -2.148335         0.971593         0.530248
 C        -1.545558         1.903003        -0.364543
 C        -1.301150         3.261757         0.492756
 C        -0.232172         4.382997         0.116566
 O         0.873275         4.331346         1.044396
 C         1.001677         2.889201         1.276116
 C        -0.423001         2.319095         1.497340
 H         0.379690        -0.399390         1.109327
 H        -2.484996         0.035279         0.165983
 H        -2.792653         1.405759         1.293385
 H        -1.833820         1.832911        -1.418087
 H        -2.134569         3.650529         1.043028
 H         0.159471         4.572842        -0.882748
 H        -0.840938         5.387279         0.194345
 H         1.405178         2.406180         0.353625
 H         1.777962         2.735016         1.966589
 H        -0.857137         2.368567         2.564036
