19
Iteration:  2608
 O         0.239104         0.272575         0.191738
 C        -0.613703         1.248302         0.637260
 C        -2.132404         0.975797         0.561046
 C        -1.518435         2.067887        -0.183530
 C        -1.308228         3.248654         0.815878
 C        -0.445006         4.292804         0.151767
 O         0.888067         3.754815         0.268765
 C         0.991224         3.094930         1.562234
 C        -0.349133         2.357266         1.637717
 H         1.029288         0.772868         0.011093
 H        -2.366378         0.067127         0.017716
 H        -2.811976         1.167868         1.456921
 H        -1.643055         2.196457        -1.260095
 H        -2.365189         3.646923         1.316545
 H        -0.650716         4.488889        -0.870214
 H        -0.435322         5.262532         0.672047
 H         1.819634         2.406251         1.563435
 H         1.187152         3.821031         2.401958
 H        -0.681588         2.067006         2.621127
