19
Iteration:  2962charge 0 multiplicity 1
 O         0.362223         0.281906         0.164388
 C        -0.628905         1.220289         0.627800
 C        -2.133147         0.885826         0.540246
 C        -1.519586         2.076719        -0.255668
 C        -1.444854         3.329917         0.686910
 C        -0.343345         4.391590         0.270176
 O         0.942462         3.840423         0.354711
 C         0.957186         2.970770         1.533537
 C        -0.471685         2.432913         1.675686
 H         0.209952        -0.596631         0.689542
 H        -2.496346         0.088068        -0.111689
 H        -2.491978         1.069708         1.516486
 H        -1.451852         2.037148        -1.375641
 H        -2.390662         3.820201         0.976466
 H        -0.623954         4.574857        -0.742817
 H        -0.457948         5.245483         0.943227
 H         1.714752         2.206991         1.261985
 H         1.365871         3.532907         2.355856
 H        -0.627436         2.144474         2.722536
