19
Iteration:  2076charge 0 multiplicity 1
 O         0.234756         0.325092         0.189872
 C        -0.708692         1.177813         0.731453
 C        -2.136220         0.842910         0.542549
 C        -1.486219         2.074178        -0.203024
 C        -1.329979         3.240838         0.764638
 C        -0.363216         4.376538         0.220455
 O         0.982952         3.939099         0.328768
 C         0.968240         2.981544         1.398818
 C        -0.425884         2.443641         1.623200
 H         0.285543        -0.576841         0.675474
 H        -2.191359        -0.010402        -0.100757
 H        -2.764861         0.861299         1.433085
 H        -1.626639         2.143688        -1.288723
 H        -2.070660         3.739929         1.300924
 H        -0.521044         4.738621        -0.803284
 H        -0.571193         5.248997         0.906649
 H         1.531382         2.108068         1.100357
 H         1.487808         3.307692         2.297667
 H        -0.647761         2.342769         2.728968
