19
Iteration:  1080
 O         0.315982         0.430859         0.165757
 C        -0.673016         1.256744         0.600472
 C        -2.169018         0.836617         0.552947
 C        -1.736937         2.092251        -0.165910
 C        -1.353669         3.244216         0.847037
 C        -0.299086         4.245218         0.215187
 O         0.959883         3.848404         0.293839
 C         1.029370         3.022923         1.478651
 C        -0.362428         2.362270         1.623830
 H         0.296572        -0.423229         0.799419
 H        -2.481074         0.033007        -0.058667
 H        -2.754435         0.853709         1.477338
 H        -1.709827         2.206694        -1.295482
 H        -2.173519         3.946709         1.265693
 H        -0.601355         4.491549        -0.860927
 H        -0.478702         5.280211         0.645031
 H         1.856683         2.418582         1.327389
 H         1.363922         3.647147         2.368808
 H        -0.343367         2.130394         2.635711
