19
Iteration:  1882
 O         0.344269         0.351694         0.090912
 C        -0.673837         1.175526         0.701813
 C        -2.143107         1.066428         0.666042
 C        -1.505148         2.049543        -0.221295
 C        -1.350201         3.296480         0.765999
 C        -0.399878         4.311083         0.230233
 O         0.914239         3.757710         0.342777
 C         0.941313         3.002789         1.488500
 C        -0.362102         2.368612         1.594586
 H         0.123676        -0.429908         0.455648
 H        -2.485108         0.206388         0.007465
 H        -2.687341         1.362513         1.551759
 H        -1.373501         2.072756        -1.315560
 H        -2.319014         3.510147         1.107739
 H        -0.647159         4.437523        -0.812905
 H        -0.358269         5.375824         0.637842
 H         1.658023         2.342384         1.377381
 H         1.145135         3.732214         2.276464
 H        -0.661919         2.166145         2.551920
