19
Iteration:  1898
 O         0.324596         0.385625         0.181460
 C        -0.664659         1.283817         0.619664
 C        -2.146641         0.930338         0.605173
 C        -1.558891         2.097209        -0.197360
 C        -1.327913         3.268203         0.695555
 C        -0.357610         4.341024         0.252581
 O         0.928160         3.737745         0.218309
 C         0.977137         3.010374         1.518977
 C        -0.424451         2.333504         1.663207
 H         0.381441        -0.515367         0.516087
 H        -2.480988         0.044969         0.122287
 H        -2.673187         1.268221         1.526110
 H        -1.779998         2.188921        -1.264537
 H        -2.261191         3.703653         1.216436
 H        -0.556896         4.792406        -0.754586
 H        -0.411696         5.031954         1.109666
 H         1.908686         2.186135         1.570263
 H         1.167812         3.817209         2.352811
 H        -0.688183         2.107606         2.792890
