19
Iteration:  1873
 O         0.312698         0.294996         0.080049
 C        -0.650859         1.187323         0.693995
 C        -2.190654         1.015434         0.607326
 C        -1.477826         2.077609        -0.159668
 C        -1.317480         3.296494         0.768284
 C        -0.415113         4.364789         0.145240
 O         0.902720         3.829354         0.335575
 C         0.980622         2.985559         1.541585
 C        -0.387353         2.367036         1.612839
 H         0.316840        -0.569779         0.328208
 H        -2.573180         0.066613         0.202434
 H        -2.665340         1.330750         1.507982
 H        -1.426540         2.149245        -1.245228
 H        -2.243540         3.536042         1.260673
 H        -0.589539         4.333938        -0.906043
 H        -0.506404         5.408771         0.569762
 H         1.754102         2.155823         1.477875
 H         1.266291         3.653833         2.432958
 H        -0.662863         2.190095         2.689846
