19
Iteration:  2740
 O         0.151808         0.093095         0.234316
 C        -0.616195         1.206635         0.644313
 C        -2.047381         0.883913         0.560436
 C        -1.582696         2.080498        -0.200449
 C        -1.304098         3.259865         0.688287
 C        -0.377609         4.423819         0.286652
 O         0.901912         3.838084         0.236581
 C         0.972410         3.176597         1.526537
 C        -0.376585         2.365065         1.605181
 H         1.032944         0.481610         0.218315
 H        -2.235947        -0.106668         0.140392
 H        -2.576109         1.025392         1.503761
 H        -1.676695         2.210059        -1.289715
 H        -2.158206         3.721518         1.297461
 H        -0.559181         4.826769        -0.661761
 H        -0.318507         5.309140         0.994772
 H         1.866165         2.536813         1.448067
 H         1.039726         3.959306         2.348721
 H        -0.685165         2.140482         2.616525
