19
Iteration:  4306
 O         0.246912         0.219554         0.327983
 C        -0.749041         1.094163         0.675861
 C        -2.200470         0.801995         0.568613
 C        -1.407384         1.957482        -0.362148
 C        -1.270521         3.362253         0.507255
 C        -0.270254         4.444593         0.088276
 O         0.836918         4.271182         1.067764
 C         1.033375         2.855331         1.162095
 C        -0.409981         2.340406         1.499577
 H        -0.058073        -0.675976         0.414319
 H        -2.704203        -0.009487         0.001903
 H        -2.869775         1.331647         1.318366
 H        -1.723495         1.831504        -1.401467
 H        -2.247112         3.797549         0.961607
 H         0.264590         4.322809        -0.935935
 H        -0.698527         5.396195         0.164776
 H         1.525583         2.414960         0.265537
 H         1.617352         2.737854         2.183066
 H        -0.544935         2.512007         2.539495
