19
Iteration:  4833charge 0 multiplicity 1
 O         0.254113         0.204413         0.236602
 C        -0.630653         1.235755         0.612297
 C        -2.146849         0.882654         0.450023
 C        -1.567378         2.120282        -0.274983
 C        -1.277499         3.237803         0.746637
 C        -0.382419         4.233454         0.109354
 O         0.919335         4.149785         0.594550
 C         0.969667         3.034490         1.506842
 C        -0.348669         2.321004         1.615385
 H        -0.011535        -0.678998         0.711321
 H        -2.360242        -0.039371        -0.131190
 H        -2.744781         0.942046         1.289705
 H        -1.409473         2.281933        -1.367554
 H        -2.175333         3.698228         1.137079
 H        -0.336289         3.995311        -1.018758
 H        -0.752509         5.222645         0.259133
 H         1.624436         2.325522         0.931128
 H         1.347340         3.417482         2.559416
 H        -0.737643         2.168502         2.643642
