19
Iteration:  1196
 O         0.204884         0.175160         0.265592
 C        -0.672422         1.202419         0.685154
 C        -2.099998         0.878741         0.502454
 C        -1.626430         2.097618        -0.189940
 C        -1.222733         3.240687         0.776879
 C        -0.397162         4.436726         0.228898
 O         0.883042         3.991591         0.375897
 C         1.051802         3.022689         1.330435
 C        -0.314916         2.379767         1.601860
 H         0.158366        -0.572418         1.025820
 H        -2.239720         0.076620        -0.202480
 H        -2.916464         0.829120         1.193680
 H        -1.744245         2.208763        -1.314448
 H        -2.109956         3.516526         1.299092
 H        -0.590909         4.811656        -0.731756
 H        -0.591176         5.312597         0.889389
 H         1.762877         2.248225         0.874576
 H         1.457103         3.436363         2.284326
 H        -0.599123         2.139015         2.678396
