19
Iteration:  4803
 O         0.306135         0.200905         0.268315
 C        -0.698277         1.155593         0.600361
 C        -2.109204         0.902994         0.552701
 C        -1.618412         2.123444        -0.273875
 C        -1.281118         3.278518         0.662067
 C        -0.333107         4.260133         0.083506
 O         0.916888         4.201835         0.645151
 C         0.995325         3.030153         1.516719
 C        -0.340589         2.249257         1.582949
 H        -0.111933        -0.598433         0.027176
 H        -2.410628         0.154020        -0.191487
 H        -2.902402         0.849099         1.437896
 H        -1.713404         2.244072        -1.345424
 H        -2.185365         3.682552         1.036556
 H        -0.300986         4.043906        -0.958533
 H        -0.762420         5.307372         0.042313
 H         1.645482         2.314884         1.025854
 H         1.242591         3.247910         2.524536
 H        -0.825052         2.096102         2.598510
