19
Iteration:  2877
 O         0.190005         0.167832         0.176535
 C        -0.632485         1.230691         0.635360
 C        -2.098259         0.960358         0.573075
 C        -1.403275         2.089433        -0.250152
 C        -1.366890         3.253029         0.761503
 C        -0.373434         4.409722         0.235840
 O         0.874946         3.797253         0.241924
 C         0.965649         3.110678         1.561427
 C        -0.401917         2.328969         1.642873
 H         1.056621         0.295107         0.512833
 H        -2.317239        -0.030609         0.096609
 H        -2.850880         1.166036         1.382576
 H        -1.390711         2.262535        -1.347746
 H        -2.374496         3.563731         1.277428
 H        -0.633689         4.905915        -0.796619
 H        -0.371575         5.262376         0.998821
 H         1.820545         2.489471         1.560253
 H         0.964729         3.828275         2.507269
 H        -0.609274         1.984395         2.673962
