19
Iteration:  3195charge 0 multiplicity 1
 O         0.312407         0.281525         0.263237
 C        -0.639572         1.224122         0.598180
 C        -2.104819         0.889961         0.531808
 C        -1.516306         2.061606        -0.299747
 C        -1.346468         3.318608         0.564888
 C        -0.356548         4.467606         0.328044
 O         0.974735         3.938285         0.415148
 C         0.897926         2.877885         1.517600
 C        -0.493310         2.322169         1.579388
 H         0.603732        -0.179679         1.101625
 H        -2.297349         0.026375        -0.134360
 H        -2.713619         0.962910         1.451984
 H        -1.682406         1.942655        -1.397671
 H        -2.135803         3.747822         1.062504
 H        -0.562270         4.901224        -0.725841
 H        -0.558482         5.078274         1.202940
 H         1.692918         2.216635         1.110583
 H         1.188031         3.402862         2.458725
 H        -0.806640         2.217336         2.657665
