19
Iteration:  4982charge 0 multiplicity 1
 O         0.467814         0.382207         0.488204
 C        -0.648383         1.184809         0.595624
 C        -2.078743         0.942166         0.435197
 C        -1.529528         2.105607        -0.243657
 C        -1.402021         3.319607         0.634391
 C        -0.410392         4.382778         0.378592
 O         0.896989         3.754514         0.316385
 C         0.919241         2.913958         1.400942
 C        -0.522463         2.370528         1.575508
 H         0.505700        -0.116091        -0.358436
 H        -2.353018         0.108274        -0.348784
 H        -2.873930         1.168085         1.230415
 H        -1.439163         2.210410        -1.337760
 H        -2.283151         3.766848         1.152991
 H        -0.589489         4.918128        -0.541025
 H        -0.346467         5.139196         1.205479
 H         1.724149         2.178163         1.289587
 H         1.263163         3.336169         2.358909
 H        -0.763598         2.240999         2.652618
