19
Iteration:  1823charge 0 multiplicity 1
 O         0.301074         0.205697         0.206929
 C        -0.718380         1.210313         0.555395
 C        -2.172641         0.880201         0.599073
 C        -1.684115         2.070955        -0.226435
 C        -1.281777         3.318705         0.737903
 C        -0.390428         4.429270         0.194744
 O         0.996974         3.950012         0.389528
 C         1.048060         3.041292         1.474814
 C        -0.342846         2.283013         1.568474
 H         0.476070        -0.383781         1.065525
 H        -2.587997         0.056828         0.040573
 H        -2.926676         1.041279         1.456958
 H        -1.920682         2.169794        -1.290650
 H        -2.197384         3.668903         1.360233
 H        -0.607325         4.695471        -0.904254
 H        -0.427544         5.320960         0.845116
 H         1.867939         2.226958         1.484898
 H         1.281511         3.574388         2.389177
 H        -0.605124         2.107632         2.642406
