19
Iteration:  2621charge 0 multiplicity 1
 O         0.296000         0.292943         0.204380
 C        -0.637516         1.249027         0.640309
 C        -2.164004         0.944975         0.643707
 C        -1.512139         2.101184        -0.209228
 C        -1.292862         3.214894         0.756070
 C        -0.396597         4.370582         0.193610
 O         0.918780         3.739752         0.225525
 C         0.890295         3.077290         1.522417
 C        -0.370687         2.297117         1.717673
 H         0.973388         0.572767        -0.617381
 H        -2.432835         0.040725         0.147281
 H        -2.930519         1.334892         1.291882
 H        -1.272759         2.212696        -1.316655
 H        -2.255820         3.650289         1.389969
 H        -0.645007         4.547949        -0.813012
 H        -0.541613         5.304273         0.783050
 H         1.928411         2.506107         1.505763
 H         0.788397         3.871769         2.295685
 H        -0.635607         2.135561         2.770321
