19
Iteration:  3395
 O         0.270273         0.156657         0.229995
 C        -0.596275         1.193203         0.575390
 C        -2.093734         0.959454         0.553972
 C        -1.553084         2.025510        -0.250180
 C        -1.333397         3.294027         0.652421
 C        -0.306700         4.372342         0.237947
 O         0.964135         3.913309         0.431248
 C         0.824627         3.056315         1.605073
 C        -0.422177         2.349771         1.581760
 H         0.868365         0.402658        -0.446257
 H        -2.295559        -0.068910         0.144982
 H        -2.626894         1.085886         1.524260
 H        -1.892548         2.206668        -1.298426
 H        -2.215990         3.655852         1.047061
 H        -0.547816         4.616160        -0.863478
 H        -0.477815         5.337404         0.731535
 H         1.820866         2.415652         1.552386
 H         0.866871         3.792840         2.482107
 H        -0.868000         2.194183         2.562851
