19
Iteration:  2013
 O         0.244770         0.110489         0.300648
 C        -0.653164         1.167004         0.578074
 C        -2.103428         0.898410         0.550647
 C        -1.672783         2.130811        -0.238890
 C        -1.388168         3.356427         0.681662
 C        -0.397203         4.452694         0.262581
 O         0.980432         3.942605         0.317860
 C         1.023863         3.091423         1.486888
 C        -0.275386         2.299286         1.576109
 H         0.054828        -0.605112         1.032395
 H        -2.245913         0.044240        -0.099201
 H        -2.774285         0.772108         1.455080
 H        -1.777924         2.116835        -1.330373
 H        -2.324368         3.608677         1.194130
 H        -0.507858         4.950783        -0.697329
 H        -0.411104         5.161959         1.073076
 H         1.793884         2.438367         1.325957
 H         1.253676         3.785145         2.372793
 H        -0.455772         1.900228         2.495581
