19
Iteration:   963charge 0 multiplicity 1
 O         0.307809         0.333032         0.250462
 C        -0.678742         1.230162         0.685549
 C        -2.102451         0.986301         0.529563
 C        -1.401100         2.068347        -0.244133
 C        -1.360632         3.296156         0.789747
 C        -0.496723         4.400853         0.344587
 O         0.820589         3.783373         0.260042
 C         1.047968         2.958348         1.316402
 C        -0.373368         2.361726         1.667852
 H         0.103543        -0.652678         0.579249
 H        -2.444626         0.017292         0.108631
 H        -2.829715         1.297944         1.365290
 H        -1.134848         2.254708        -1.315462
 H        -2.362874         3.632093         1.110382
 H        -0.705893         4.845294        -0.621757
 H        -0.437613         5.258370         1.015489
 H         1.798667         2.082138         0.924198
 H         1.451032         3.451898         2.244511
 H        -0.502040         2.103259         2.832201
