19
Iteration:  2196
 O         0.420513         0.352181         0.257803
 C        -0.648108         1.184806         0.562171
 C        -2.160726         0.935483         0.625800
 C        -1.671364         2.135830        -0.221952
 C        -1.263966         3.293359         0.734337
 C        -0.370066         4.326493         0.254427
 O         0.871680         3.835736         0.366566
 C         0.978156         2.955352         1.419362
 C        -0.395072         2.370768         1.555789
 H         0.065439        -0.410142         0.604016
 H        -2.637463         0.252963        -0.046070
 H        -2.695594         1.012452         1.558986
 H        -1.836918         2.095312        -1.346107
 H        -2.105007         3.568390         1.285217
 H        -0.430361         4.507359        -0.811217
 H        -0.457650         5.262473         0.784720
 H         1.962839         2.410538         1.281635
 H         1.113627         3.522369         2.382312
 H        -0.664036         2.122720         2.644016
