19
Iteration:   643charge 0 multiplicity 1
 O         0.315495         0.207699         0.358920
 C        -0.663042         1.191067         0.623830
 C        -2.230375         1.041919         0.584166
 C        -1.537046         2.104358        -0.272096
 C        -1.282248         3.205339         0.737241
 C        -0.509797         4.354848         0.323746
 O         0.881657         3.989268         0.323070
 C         1.113032         2.978261         1.307090
 C        -0.281626         2.293710         1.541395
 H         0.030090        -0.633192         0.821615
 H        -2.536125         0.134835         0.053793
 H        -2.854383         1.449732         1.351830
 H        -1.823403         2.397359        -1.338840
 H        -2.169837         3.559340         1.216754
 H        -0.675752         4.845234        -0.664998
 H        -0.743404         5.027568         1.117491
 H         1.975020         2.342249         1.045961
 H         1.392563         3.455892         2.276969
 H        -0.440053         2.010093         2.549956
