19
Iteration:  1920
 O         0.359035         0.342959         0.254788
 C        -0.705877         1.252097         0.625457
 C        -2.097860         0.795737         0.526009
 C        -1.717563         2.144377        -0.175908
 C        -1.370954         3.331292         0.807512
 C        -0.293833         4.416016         0.297388
 O         0.956549         3.690395         0.216870
 C         0.990035         3.050254         1.428785
 C        -0.435571         2.404259         1.584882
 H         0.456780        -0.382622         0.908075
 H        -2.197777         0.158956        -0.332867
 H        -2.945682         0.638616         1.220257
 H        -1.810816         2.062430        -1.261656
 H        -2.143196         3.926922         1.398498
 H        -0.462370         4.732584        -0.758036
 H        -0.222483         5.207002         1.083337
 H         1.905230         2.207000         1.356931
 H         1.162703         3.610364         2.433071
 H        -0.601548         2.349415         2.757414
