19
Iteration:  4888charge 0 multiplicity 1
 O         0.283759         0.301673         0.242138
 C        -0.635575         1.187757         0.658775
 C        -2.122640         0.921075         0.568872
 C        -1.471161         1.992009        -0.358255
 C        -1.369089         3.232649         0.574450
 C        -0.436116         4.440365         0.296600
 O         1.031012         3.977768         0.468694
 C         0.923744         2.941607         1.514026
 C        -0.470645         2.346650         1.537461
 H         0.749283        -0.235341         0.973514
 H        -2.437065         0.048514         0.100350
 H        -2.622199         1.251972         1.420384
 H        -1.905075         1.925352        -1.340273
 H        -2.374146         3.635377         0.726146
 H        -0.465473         4.968167        -0.708490
 H        -0.560747         5.136673         1.087246
 H         1.767541         2.306111         1.303018
 H         1.305110         3.328538         2.507356
 H        -0.900945         2.194262         2.540265
