19
Iteration:  1449charge 0 multiplicity 1
 O         0.211598         0.091078         0.274592
 C        -0.660913         1.132413         0.625424
 C        -2.142665         0.956115         0.504700
 C        -1.621878         2.113512        -0.226470
 C        -1.361813         3.246358         0.763239
 C        -0.441504         4.463360         0.284271
 O         0.963240         3.976035         0.359820
 C         1.086243         3.055678         1.401012
 C        -0.263244         2.337828         1.488612
 H         0.444719        -0.286142         1.183904
 H        -2.455513         0.057586        -0.051647
 H        -2.793228         1.106636         1.412169
 H        -1.851716         2.202395        -1.297101
 H        -2.217200         3.566023         1.415760
 H        -0.684391         4.756307        -0.712477
 H        -0.560701         5.345028         0.987513
 H         2.007100         2.404251         1.315908
 H         1.212620         3.540325         2.449743
 H        -0.417967         2.340166         2.536578
