19
Iteration:  2773charge 0 multiplicity 1
 O         0.323104         0.266170         0.340505
 C        -0.681362         1.154214         0.667964
 C        -2.177911         0.976938         0.562598
 C        -1.542617         2.103215        -0.204883
 C        -1.272333         3.221740         0.709778
 C        -0.402164         4.360423         0.232412
 O         0.912371         3.918724         0.300756
 C         0.980719         3.058396         1.447766
 C        -0.366223         2.276409         1.564544
 H         0.411679        -0.054650        -0.660558
 H        -2.469978         0.027467         0.101130
 H        -2.668330         1.267399         1.473642
 H        -1.566171         2.221601        -1.291906
 H        -2.156598         3.640591         1.304203
 H        -0.686355         4.559756        -0.746920
 H        -0.624361         5.298429         0.886060
 H         1.737013         2.231206         1.342589
 H         1.132486         3.574864         2.479442
 H        -0.719447         2.230543         2.582954
