19
Iteration:  1045
 O         0.305106         0.325286        -0.008342
 C        -0.607703         1.149063         0.615674
 C        -2.115622         0.970617         0.806937
 C        -1.506608         2.008028        -0.175095
 C        -1.368915         3.313587         0.680538
 C        -0.363949         4.396779         0.192011
 O         0.886729         3.861734         0.363714
 C         0.945965         2.974590         1.507438
 C        -0.404581         2.383411         1.649983
 H         0.380667        -0.586901         0.500032
 H        -2.681352         0.235636         0.200142
 H        -2.505101         1.289831         1.698769
 H        -1.561527         1.934183        -1.282837
 H        -2.259084         3.785161         1.090609
 H        -0.444951         4.517459        -0.921747
 H        -0.450368         5.341005         0.755483
 H         1.657476         2.249949         1.295956
 H         1.150033         3.420371         2.503017
 H        -0.685501         2.243666         2.626488
