19
Iteration:  4543
 O         0.208612         0.045684         0.359705
 C        -0.670374         1.115426         0.554943
 C        -2.090930         0.888893         0.609197
 C        -1.596985         2.050072        -0.317207
 C        -1.331398         3.262693         0.544845
 C        -0.328935         4.366328         0.129416
 O         0.947633         4.258240         0.833428
 C         0.983872         2.967590         1.395094
 C        -0.380177         2.367507         1.439922
 H         0.934653         0.169085        -0.274617
 H        -2.708531         0.075475         0.102605
 H        -2.654727         1.300002         1.427816
 H        -1.626172         2.053456        -1.435450
 H        -2.303540         3.580370         1.035600
 H        -0.137551         4.458489        -0.914614
 H        -0.682651         5.413111         0.409421
 H         1.758252         2.491208         0.872578
 H         1.295019         2.922989         2.451946
 H        -0.786807         2.226411         2.470565
