19
Iteration:  1869charge 0 multiplicity 1
 O         0.290153         0.295750         0.082920
 C        -0.626699         1.170395         0.663704
 C        -2.195051         0.976108         0.597094
 C        -1.478925         2.116088        -0.156970
 C        -1.313176         3.268306         0.766968
 C        -0.418471         4.373206         0.120917
 O         0.917341         3.852678         0.323937
 C         1.007825         2.992701         1.554383
 C        -0.403329         2.361320         1.673492
 H         0.322908        -0.698206         0.418589
 H        -2.617983         0.021028         0.220544
 H        -2.796750         1.285705         1.486773
 H        -1.514235         2.122918        -1.259339
 H        -2.163582         3.740311         1.317005
 H        -0.517351         4.434541        -0.994467
 H        -0.616754         5.379545         0.561259
 H         1.756687         2.300077         1.406914
 H         1.218085         3.478779         2.495283
 H        -0.642864         2.238829         2.686056
