19
Iteration:  1535charge 0 multiplicity 1
 O         0.365407         0.422737         0.292269
 C        -0.693958         1.272530         0.647137
 C        -2.138579         0.910191         0.432201
 C        -1.621394         2.204524        -0.168572
 C        -1.324088         3.287762         0.884637
 C        -0.397876         4.295891         0.276723
 O         0.864323         3.677086         0.218055
 C         1.052704         3.032791         1.433998
 C        -0.378337         2.315122         1.625225
 H         0.078786        -0.536664         0.517290
 H        -2.115924         0.077010        -0.215486
 H        -2.975255         0.840773         1.116054
 H        -1.494801         2.447389        -1.251088
 H        -2.266841         3.695423         1.382582
 H        -0.612578         4.485189        -0.711319
 H        -0.284301         5.257825         0.755235
 H         1.861590         2.301609         1.200772
 H         1.227023         3.648071         2.251790
 H        -0.464259         2.135288         2.701880
