19
Iteration:  4204charge 0 multiplicity 1
 O         0.309246         0.243417         0.239077
 C        -0.662966         1.156671         0.639054
 C        -2.193868         0.894668         0.600202
 C        -1.505093         1.962539        -0.298587
 C        -1.287022         3.335135         0.506166
 C        -0.260853         4.328330         0.071269
 O         0.861044         4.218942         0.877134
 C         0.972566         2.849426         1.386122
 C        -0.442518         2.361379         1.493690
 H        -0.080397        -0.694052         0.458911
 H        -2.750274         0.083723         0.158612
 H        -2.653120         1.410362         1.388094
 H        -1.610403         1.888079        -1.404771
 H        -2.214936         3.741397         0.962236
 H        -0.173996         4.581548        -1.064500
 H        -0.658095         5.331607         0.475795
 H         1.746651         2.148333         0.839063
 H         1.425513         2.991139         2.456277
 H        -0.585052         2.246918         2.600178
