19
Iteration:  4781
 O         0.343203         0.283312         0.269950
 C        -0.708641         1.178054         0.576043
 C        -2.212887         0.830263         0.639692
 C        -1.631166         1.955212        -0.298068
 C        -1.348773         3.236132         0.621325
 C        -0.304731         4.349207         0.023298
 O         0.981942         4.195781         0.772841
 C         1.058749         2.942620         1.476097
 C        -0.362247         2.366173         1.507909
 H         0.103908        -0.513713        -0.326382
 H        -2.695445        -0.034720         0.128037
 H        -3.031855         1.220124         1.387869
 H        -1.847451         1.990267        -1.371721
 H        -2.204772         3.610821         1.154250
 H        -0.201757         4.405641        -1.032602
 H        -0.684189         5.398340         0.274860
 H         1.751730         2.246063         1.019969
 H         1.195765         3.168158         2.492105
 H        -0.849724         2.335742         2.540836
