19
Iteration:  2048
 O         0.300605         0.249695         0.202005
 C        -0.695478         1.162267         0.706838
 C        -2.244083         0.988318         0.562534
 C        -1.434046         2.085074        -0.235496
 C        -1.364010         3.253486         0.744277
 C        -0.447915         4.407548         0.148519
 O         0.892769         3.943674         0.406792
 C         1.037117         3.015434         1.424599
 C        -0.307282         2.317600         1.655032
 H         0.119391        -0.728918         0.529173
 H        -2.526018         0.046581         0.099221
 H        -2.901499         1.285575         1.423214
 H        -1.264597         2.028272        -1.328460
 H        -2.150378         3.815193         1.301274
 H        -0.482498         4.507578        -0.948332
 H        -0.666844         5.410552         0.516926
 H         1.677997         2.195623         1.013103
 H         1.537921         3.345915         2.382961
 H        -0.359081         2.022191         2.685580
