19
Iteration:  4765charge 0 multiplicity 1
 O         0.348828         0.315064         0.282061
 C        -0.720471         1.144267         0.636371
 C        -2.172078         0.914626         0.671782
 C        -1.636697         2.005072        -0.281128
 C        -1.301949         3.269235         0.455504
 C        -0.327709         4.310901         0.127387
 O         0.915851         4.174770         0.787029
 C         1.027170         2.884366         1.464290
 C        -0.428136         2.339820         1.481198
 H         0.032394        -0.206712        -0.465611
 H        -2.399131        -0.003536         0.148073
 H        -2.615570         0.992245         1.597457
 H        -1.775495         1.789928        -1.344464
 H        -2.177067         3.853631         0.860284
 H        -0.022735         4.111449        -0.960176
 H        -0.642511         5.311265         0.253209
 H         1.663261         2.331472         0.706440
 H         1.637986         3.218882         2.422150
 H        -0.607245         2.131003         2.523850
