19
Iteration:  3741
 O         0.275971         0.301522         0.187942
 C        -0.758126         1.189459         0.616855
 C        -2.200906         0.868928         0.672246
 C        -1.629028         2.032449        -0.288504
 C        -1.301426         3.225205         0.522265
 C        -0.188467         4.214163         0.058656
 O         0.916057         4.270691         0.948110
 C         1.007395         2.864202         1.315843
 C        -0.467873         2.358634         1.493857
 H         0.902038         0.238873         0.990853
 H        -2.610091         0.106225         0.088039
 H        -2.721583         1.258647         1.459609
 H        -1.499404         1.917381        -1.361845
 H        -2.213019         3.593407         0.888446
 H         0.188954         3.875492        -0.971122
 H        -0.730047         5.248325         0.055607
 H         1.666263         2.277099         0.595835
 H         1.576601         2.719112         2.295829
 H        -0.568067         2.360708         2.593502
