19
Iteration:  4895charge 0 multiplicity 1
 O         0.282054         0.307304         0.291932
 C        -0.620192         1.182760         0.612090
 C        -2.106623         0.942364         0.524106
 C        -1.462151         2.035250        -0.306224
 C        -1.408365         3.277676         0.545792
 C        -0.411073         4.413461         0.336050
 O         0.996834         3.920044         0.422103
 C         0.916696         2.964319         1.536894
 C        -0.414103         2.337518         1.518335
 H         0.615941        -0.443757         0.921718
 H        -2.376466        -0.070489         0.036861
 H        -2.636695         1.103369         1.514740
 H        -1.685637         2.013002        -1.422827
 H        -2.400116         3.601808         1.098288
 H        -0.608006         4.914431        -0.626056
 H        -0.683400         5.343298         0.991316
 H         1.702694         2.194341         1.322942
 H         1.031541         3.476257         2.487960
 H        -0.735666         2.167070         2.530288
