19
Iteration:  2098charge 0 multiplicity 1
 O         0.342704         0.324193         0.267828
 C        -0.650841         1.226643         0.590841
 C        -2.158567         0.878335         0.547726
 C        -1.669806         2.104812        -0.226406
 C        -1.396664         3.278697         0.729860
 C        -0.347348         4.448029         0.291174
 O         0.902081         3.834092         0.249956
 C         1.069099         2.916552         1.486951
 C        -0.344401         2.348016         1.594901
 H         0.462646        -0.164431         1.042325
 H        -2.394459         0.028454        -0.031068
 H        -2.834758         0.990412         1.421910
 H        -1.828841         1.969184        -1.319311
 H        -2.185015         3.780692         1.171669
 H        -0.539749         4.911490        -0.680617
 H        -0.337633         5.319955         1.015090
 H         1.976606         2.293566         1.501666
 H         1.141888         3.628810         2.288136
 H        -0.781954         2.068654         2.605358
