19
Iteration:  1972charge 0 multiplicity 1
 O         0.287090         0.327439         0.233588
 C        -0.660855         1.214677         0.720331
 C        -2.180706         1.035748         0.500490
 C        -1.410369         2.073045        -0.188550
 C        -1.404391         3.216915         0.708545
 C        -0.421126         4.350158         0.263669
 O         0.882094         3.808494         0.244422
 C         1.017440         3.008782         1.445879
 C        -0.348768         2.309371         1.674520
 H         0.225801        -0.518839         0.549026
 H        -2.452119         0.115433         0.067115
 H        -2.766667         1.362771         1.383756
 H        -1.356888         2.222074        -1.264969
 H        -2.299131         3.809074         0.951223
 H        -0.601857         4.810965        -0.722597
 H        -0.572534         5.117816         1.073644
 H         1.827079         2.291461         1.109111
 H         1.189578         3.503300         2.368242
 H        -0.384000         2.376814         2.823124
