19
Iteration:    12charge 0 multiplicity 1
 O         0.297343         0.269038         0.160248
 C        -0.728876         1.143447         0.699015
 C        -2.188663         0.812124         0.636531
 C        -1.513882         2.158425        -0.161600
 C        -1.319851         3.316829         0.753885
 C        -0.445298         4.464985         0.242148
 O         0.942969         3.900822         0.229200
 C         1.016763         2.988368         1.418484
 C        -0.368523         2.377425         1.646051
 H         0.425893        -0.651514         0.756573
 H        -2.255093         0.067258        -0.140179
 H        -2.664758         0.495154         1.541007
 H        -1.234575         2.252270        -1.191713
 H        -2.266722         3.717988         1.122440
 H        -0.592416         4.789276        -0.788755
 H        -0.557858         5.340292         0.953789
 H         1.610155         2.102442         1.220035
 H         1.411164         3.563613         2.245428
 H        -0.532637         2.245115         2.718462
