19
Iteration:  3307charge 0 multiplicity 1
 O         0.444782         0.402290         0.427314
 C        -0.684710         1.203376         0.597669
 C        -2.172956         0.880901         0.496960
 C        -1.692528         2.087718        -0.317943
 C        -1.363875         3.232401         0.648440
 C        -0.355804         4.394994         0.326443
 O         1.009392         3.843694         0.335799
 C         0.953765         2.918294         1.485001
 C        -0.479819         2.362223         1.611403
 H         0.939548         0.667789        -0.425144
 H        -2.358693        -0.043135        -0.038559
 H        -2.947507         0.924200         1.287220
 H        -1.548793         2.122379        -1.393221
 H        -2.176187         3.544734         1.174220
 H        -0.550288         4.758900        -0.740234
 H        -0.331414         5.231087         1.061779
 H         1.478620         2.098477         1.164036
 H         1.268109         3.415454         2.403687
 H        -0.874559         2.158756         2.618062
