19
Iteration:  1802
 O         0.294666         0.257934         0.155367
 C        -0.683739         1.166122         0.656306
 C        -2.114620         1.068159         0.634295
 C        -1.455348         2.031992        -0.221794
 C        -1.328617         3.269979         0.717809
 C        -0.420769         4.346849         0.272707
 O         0.934641         3.900360         0.343548
 C         0.942908         2.964237         1.426933
 C        -0.393963         2.346237         1.567308
 H         0.357417        -0.418707         0.793385
 H        -2.589634         0.217162         0.161065
 H        -2.681865         1.329699         1.632248
 H        -1.571964         2.275110        -1.264502
 H        -2.352523         3.606140         1.124972
 H        -0.586485         4.745977        -0.795366
 H        -0.558309         5.176829         1.047809
 H         1.805440         2.272777         1.224271
 H         1.299092         3.436919         2.337794
 H        -0.725604         2.274192         2.594031
