19
Iteration:  3187charge 0 multiplicity 1
 O         0.312634         0.294071         0.243133
 C        -0.698266         1.242617         0.619186
 C        -2.047258         0.879340         0.565931
 C        -1.485150         2.070763        -0.332679
 C        -1.310876         3.312940         0.557531
 C        -0.371096         4.430648         0.352158
 O         0.915930         3.901936         0.411244
 C         0.908807         2.851827         1.484520
 C        -0.459655         2.329201         1.599436
 H         0.675302        -0.017766         1.074784
 H        -2.318637        -0.076176         0.110263
 H        -2.741503         1.297907         1.307098
 H        -1.546796         2.183470        -1.419592
 H        -2.327899         3.659937         1.023201
 H        -0.376215         5.070342        -0.570039
 H        -0.608202         5.230107         1.087946
 H         1.606805         2.167605         1.217988
 H         1.148409         3.351442         2.501029
 H        -0.992552         2.359084         2.527683
