19
Iteration:  1277charge 0 multiplicity 1
 O         0.279189         0.320012         0.208447
 C        -0.668680         1.321410         0.588923
 C        -2.125068         0.804652         0.552653
 C        -1.709083         2.075350        -0.223488
 C        -1.327131         3.273561         0.769867
 C        -0.333292         4.318858         0.299532
 O         1.001220         3.843312         0.233853
 C         0.974604         3.041548         1.467090
 C        -0.335568         2.398478         1.634075
 H         0.243283        -0.359475         1.017286
 H        -2.090180        -0.251516         0.113208
 H        -2.713332         0.892480         1.509943
 H        -1.966698         2.254870        -1.231768
 H        -2.228862         3.683728         1.229310
 H        -0.572217         4.854812        -0.736722
 H        -0.254246         5.125112         1.000015
 H         1.738257         2.280599         1.372054
 H         1.066491         3.766569         2.385370
 H        -0.803152         2.109087         2.677568
