19
Iteration:   573charge 0 multiplicity 1
 O         0.281995         0.368608         0.272005
 C        -0.648563         1.221131         0.694221
 C        -2.238886         0.965432         0.485310
 C        -1.438447         2.105245        -0.243129
 C        -1.307008         3.244257         0.854928
 C        -0.490189         4.336611         0.271329
 O         0.829342         3.815701         0.225875
 C         1.092588         2.972215         1.377257
 C        -0.273845         2.332195         1.646335
 H        -0.014494        -0.529253         0.367945
 H        -2.365959        -0.089437         0.333349
 H        -2.949689         1.448331         1.225319
 H        -1.323473         2.277611        -1.296488
 H        -2.290121         3.554866         1.410317
 H        -0.837835         4.518532        -0.789293
 H        -0.481179         5.250576         0.908616
 H         1.981237         2.335224         1.162317
 H         1.277378         3.621916         2.336079
 H        -0.512713         2.311258         2.824469
