19
Iteration:  1708
 O         0.341639         0.322826         0.257597
 C        -0.634964         1.256505         0.686527
 C        -2.145272         0.999572         0.502067
 C        -1.509147         2.156156        -0.254940
 C        -1.391118         3.221396         0.790242
 C        -0.405517         4.395696         0.321272
 O         0.927460         3.792889         0.191812
 C         0.971424         2.930784         1.422581
 C        -0.413862         2.373788         1.700486
 H         0.056851        -0.678352         0.334190
 H        -2.289464         0.029834         0.124161
 H        -2.825676         1.167929         1.267806
 H        -1.480440         1.939047        -1.359171
 H        -2.238033         3.662956         1.167799
 H        -0.733004         4.814720        -0.589293
 H        -0.307405         5.159960         1.088887
 H         1.723900         2.220109         1.236468
 H         1.355183         3.466961         2.216524
 H        -0.612526         2.136724         2.787723
