19
Iteration:  3809charge 0 multiplicity 1
 O         0.123257         0.023825         0.350116
 C        -0.625226         1.107532         0.560437
 C        -2.223029         0.990777         0.477170
 C        -1.599738         2.113617        -0.293906
 C        -1.223007         3.165815         0.644055
 C        -0.315189         4.227702         0.025398
 O         0.798140         4.362110         0.888890
 C         1.083997         3.033417         1.454068
 C        -0.243927         2.334647         1.512099
 H         0.299864        -0.177959        -0.609987
 H        -2.565381         0.277255        -0.264804
 H        -2.893766         1.145399         1.264348
 H        -1.299569         2.202538        -1.356482
 H        -1.923556         3.681692         1.169520
 H        -0.003631         3.892199        -1.047513
 H        -0.784025         5.206738        -0.022202
 H         1.884934         2.443388         1.064170
 H         1.515100         3.168231         2.464390
 H        -0.617328         2.085552         2.480860
