19
Iteration:  1697charge 0 multiplicity 1
 O         0.344336         0.324243         0.184206
 C        -0.724691         1.186155         0.723520
 C        -2.180622         0.899383         0.536444
 C        -1.493528         2.005218        -0.217134
 C        -1.328263         3.330288         0.750972
 C        -0.339063         4.406881         0.313992
 O         0.915954         3.826308         0.226398
 C         1.001399         3.011853         1.424103
 C        -0.437760         2.390294         1.698452
 H        -0.088235        -0.626817         0.251095
 H        -2.385372        -0.000588         0.027765
 H        -2.844168         1.236619         1.258157
 H        -1.353256         2.220807        -1.312939
 H        -2.211439         3.673565         1.161832
 H        -0.467309         4.983645        -0.559136
 H        -0.443279         5.096793         1.171237
 H         1.635608         2.226773         1.139436
 H         1.321981         3.582086         2.226491
 H        -0.684278         2.211241         2.786972
