19
Iteration:   783charge 0 multiplicity 1
 O         0.361306         0.471674         0.059838
 C        -0.719095         1.202544         0.757370
 C        -2.263305         0.783976         0.539063
 C        -1.663126         2.090280        -0.081029
 C        -1.312715         3.207254         0.829271
 C        -0.321441         4.304510         0.118280
 O         0.969272         3.811675         0.284881
 C         1.005683         3.028012         1.486341
 C        -0.398541         2.420949         1.669352
 H         0.590604        -0.343283         0.630680
 H        -2.310234        -0.087509        -0.095141
 H        -3.025676         0.994550         1.268453
 H        -1.467363         2.230565        -1.200239
 H        -2.117858         3.868721         1.320067
 H        -0.411767         4.583719        -0.978304
 H        -0.410683         5.231911         0.678495
 H         1.699622         2.304984         1.317649
 H         1.414587         3.609729         2.352253
 H        -0.570817         2.397167         2.850619
