19
Iteration:  1153
 O         0.337035         0.373996         0.283121
 C        -0.641849         1.203629         0.638098
 C        -2.132335         1.021370         0.548953
 C        -1.555296         2.080882        -0.245712
 C        -1.310614         3.223246         0.707637
 C        -0.428593         4.380547         0.399684
 O         0.826117         3.792226         0.201498
 C         1.019225         2.980668         1.407702
 C        -0.353493         2.333349         1.625497
 H         0.230803        -0.556345         0.699635
 H        -2.480927         0.126753         0.020475
 H        -2.724907         1.257566         1.395987
 H        -1.570031         2.090053        -1.375379
 H        -2.075720         3.628291         1.269305
 H        -0.590331         4.818039        -0.578749
 H        -0.374758         5.177326         1.125619
 H         1.762717         2.179736         1.169890
 H         1.419474         3.485424         2.304231
 H        -0.760696         2.224567         2.714456
