19
Iteration:   397
 O         0.361507         0.237567         0.196675
 C        -0.648972         1.178081         0.689707
 C        -2.078091         1.039081         0.570506
 C        -1.473913         2.097658        -0.255966
 C        -1.320348         3.282012         0.777155
 C        -0.508875         4.477191         0.317863
 O         0.836829         3.835401         0.209426
 C         0.992281         2.905489         1.403646
 C        -0.344701         2.350821         1.718071
 H         0.155271        -0.664588         0.483914
 H        -2.636515         0.128586         0.185352
 H        -2.621917         1.352061         1.530281
 H        -1.670428         2.130532        -1.330024
 H        -2.373980         3.692619         1.138136
 H        -0.816045         4.831750        -0.705773
 H        -0.469869         5.443264         0.899009
 H         1.731037         2.081237         1.045496
 H         1.371088         3.491458         2.305669
 H        -0.633800         2.153986         2.781949
