19
Iteration:  2795
 O         0.364070         0.380287         0.318887
 C        -0.674567         1.286591         0.680350
 C        -2.195203         0.879498         0.521731
 C        -1.550785         2.039301        -0.222608
 C        -1.376452         3.282916         0.711915
 C        -0.454146         4.360396         0.200605
 O         0.954927         3.899857         0.373244
 C         1.054599         2.910005         1.394108
 C        -0.368610         2.366608         1.656856
 H        -0.046929        -0.357408        -0.043277
 H        -2.423527         0.034828        -0.138742
 H        -2.840652         1.039288         1.353741
 H        -1.642835         2.087417        -1.295276
 H        -2.297491         3.701760         1.181231
 H        -0.617559         4.468269        -0.831366
 H        -0.559453         5.389688         0.694434
 H         1.721498         2.044447         1.088696
 H         1.422349         3.338112         2.416080
 H        -0.420629         2.048927         2.681198
