19
Iteration:   621charge 0 multiplicity 1
 O         0.271446         0.102566         0.410057
 C        -0.626638         1.169784         0.541256
 C        -2.108096         0.900714         0.596381
 C        -1.636213         2.147028        -0.301489
 C        -1.343090         3.285465         0.785369
 C        -0.430873         4.522053         0.416456
 O         0.922113         3.945884         0.232971
 C         1.064464         3.070224         1.348790
 C        -0.323841         2.308704         1.499507
 H        -0.275940        -0.684175         0.666421
 H        -2.415442         0.065710        -0.066133
 H        -2.671735         0.964931         1.496504
 H        -1.705989         2.169518        -1.435630
 H        -2.171810         3.510196         1.421113
 H        -0.594710         4.944904        -0.600096
 H        -0.473656         5.282170         1.144777
 H         1.828934         2.325951         1.155329
 H         1.368351         3.535771         2.274113
 H        -0.519137         2.037622         2.505237
