19
Iteration:   230
 O         0.332601         0.350933        -0.022854
 C        -0.642950         1.255923         0.593547
 C        -2.115073         0.972699         0.743830
 C        -1.538823         2.113157        -0.137081
 C        -1.303927         3.298401         0.786833
 C        -0.393946         4.187966         0.135667
 O         0.898596         3.810476         0.297176
 C         0.930530         3.030806         1.540747
 C        -0.363036         2.352937         1.699627
 H         0.328225        -0.471290         0.621086
 H        -2.489639         0.039972         0.276175
 H        -2.697590         1.312122         1.563064
 H        -1.810699         2.269960        -1.226649
 H        -2.302719         3.741028         1.133177
 H        -0.625094         4.234613        -0.889366
 H        -0.590149         5.260197         0.572256
 H         1.820084         2.421731         1.551609
 H         1.120978         3.737551         2.447813
 H        -0.708658         2.102560         2.682296
