19
Iteration:  2493
 O         0.279899         0.165417         0.284399
 C        -0.669232         1.238492         0.647632
 C        -2.136729         0.884526         0.455176
 C        -1.657525         2.126023        -0.175688
 C        -1.333279         3.248885         0.848930
 C        -0.379391         4.367272         0.239414
 O         0.969270         3.762462         0.240549
 C         0.947964         3.096595         1.443858
 C        -0.310684         2.416893         1.658501
 H         1.069328         0.666236        -0.110316
 H        -2.083419         0.137909        -0.293854
 H        -2.819040         0.887830         1.292776
 H        -1.967455         2.427363        -1.203605
 H        -2.315890         3.751755         1.364980
 H        -0.694305         4.609140        -0.806286
 H        -0.390887         5.259906         0.857112
 H         1.911435         2.552052         1.597020
 H         0.924365         3.874624         2.267203
 H        -0.544208         2.200961         2.711709
