19
Iteration:  3407
 O         0.288518         0.183139         0.249928
 C        -0.648507         1.206734         0.600282
 C        -2.088232         0.902356         0.633358
 C        -1.568854         2.102229        -0.286595
 C        -1.343370         3.275594         0.600507
 C        -0.402526         4.368229         0.174664
 O         0.968472         3.941702         0.503478
 C         0.969552         2.983280         1.582854
 C        -0.471384         2.385079         1.559376
 H         0.914156         0.693632        -0.422773
 H        -2.377868         0.102335        -0.098558
 H        -2.687310         1.086165         1.559559
 H        -1.667691         1.961769        -1.391068
 H        -2.195410         3.711327         0.980296
 H        -0.310300         4.520134        -0.934246
 H        -0.689638         5.302303         0.715221
 H         1.745269         2.176997         1.427336
 H         1.237532         3.394649         2.669598
 H        -0.830867         2.141220         2.564257
