19
Iteration:  4532
 O         0.213008         0.030947         0.354999
 C        -0.633751         1.148061         0.580311
 C        -2.130933         0.984852         0.587406
 C        -1.578354         2.012931        -0.378999
 C        -1.251108         3.246712         0.567838
 C        -0.341026         4.350741         0.123838
 O         0.894808         4.276490         0.813080
 C         1.016209         2.982804         1.457556
 C        -0.410501         2.315787         1.482525
 H         0.537742         0.253809        -0.614398
 H        -2.390502        -0.012301         0.040309
 H        -2.702968         1.236125         1.469087
 H        -1.839622         1.892847        -1.462131
 H        -2.062553         3.843733         1.065508
 H        -0.190180         4.245625        -0.924507
 H        -0.841670         5.332906         0.426881
 H         1.493999         2.244426         0.873305
 H         1.565146         3.239435         2.372645
 H        -0.731116         2.079602         2.531065
