19
Iteration:   960
 O         0.291105         0.355028         0.268524
 C        -0.672948         1.222714         0.716643
 C        -2.123621         0.976418         0.521673
 C        -1.417165         2.051116        -0.264753
 C        -1.348366         3.287500         0.772625
 C        -0.493722         4.420082         0.354734
 O         0.835891         3.800848         0.234998
 C         1.051188         2.921102         1.335258
 C        -0.355797         2.363262         1.671698
 H         0.154765        -0.567672         0.458142
 H        -2.403107        -0.036412         0.151183
 H        -2.770656         1.199262         1.297108
 H        -1.168825         2.258553        -1.308312
 H        -2.433291         3.538858         1.108669
 H        -0.722526         4.961160        -0.610253
 H        -0.362203         5.199446         1.144051
 H         1.681070         2.180489         0.942767
 H         1.494708         3.510382         2.175914
 H        -0.567085         2.131083         2.776111
