19
Iteration:  4636
 O         0.226943         0.126765         0.317799
 C        -0.719022         1.131569         0.588799
 C        -2.205083         0.872040         0.591181
 C        -1.533828         1.956346        -0.340230
 C        -1.281576         3.258189         0.547852
 C        -0.326344         4.354615         0.139184
 O         0.866465         4.350842         0.963425
 C         1.085767         2.966338         1.270580
 C        -0.327335         2.340903         1.433954
 H         0.077030        -0.608848         0.937265
 H        -2.573355        -0.006525        -0.004510
 H        -2.976566         1.253851         1.280637
 H        -1.767323         1.875768        -1.392201
 H        -2.078549         3.658201         1.113936
 H        -0.015786         4.143423        -0.908777
 H        -0.699154         5.363622         0.085639
 H         1.609072         2.484366         0.488223
 H         1.853712         2.920842         2.098256
 H        -0.624731         2.499424         2.537299
