19
Iteration:   762
 O         0.219911         0.462821         0.130631
 C        -0.683154         1.273927         0.714032
 C        -2.086739         0.810713         0.597748
 C        -1.579296         2.117664        -0.158724
 C        -1.396408         3.269906         0.751331
 C        -0.349879         4.340264         0.229617
 O         0.961933         3.728214         0.221730
 C         1.027057         3.007301         1.518812
 C        -0.394752         2.389321         1.670480
 H         0.118965        -0.419589         0.244213
 H        -1.997456         0.129996        -0.191401
 H        -2.601348         0.494923         1.446937
 H        -1.603347         1.993075        -1.293248
 H        -2.218654         3.890964         1.143964
 H        -0.727629         4.507731        -0.829243
 H        -0.302422         5.335692         0.745794
 H         1.830951         2.405925         1.575482
 H         1.271667         3.756334         2.316261
 H        -0.514233         2.116406         2.809107
