19
Iteration:  1185charge 0 multiplicity 1
 O         0.256640         0.194662         0.290833
 C        -0.682080         1.093405         0.675745
 C        -2.136984         0.811839         0.485286
 C        -1.639426         2.111657        -0.154439
 C        -1.320414         3.334625         0.764160
 C        -0.381119         4.506117         0.317449
 O         0.993474         4.021522         0.250390
 C         1.019634         2.985222         1.370014
 C        -0.384403         2.308441         1.589310
 H         0.310941        -0.545541         0.963271
 H        -2.265949         0.115242        -0.329935
 H        -2.786515         0.763244         1.337628
 H        -1.677116         2.175040        -1.286791
 H        -2.081755         3.767098         1.374444
 H        -0.637121         4.739223        -0.687113
 H        -0.525244         5.343765         0.996429
 H         1.799425         2.251418         0.966195
 H         1.454035         3.506123         2.236383
 H        -0.683617         2.385284         2.685584
