19
Iteration:  1338charge 0 multiplicity 1
 O         0.307215         0.510103         0.174639
 C        -0.706213         1.253974         0.744893
 C        -2.081158         0.853877         0.472514
 C        -1.578163         2.152980        -0.187362
 C        -1.401110         3.257134         0.796620
 C        -0.339736         4.307617         0.246352
 O         0.870466         3.601831         0.237239
 C         1.023865         3.044024         1.443492
 C        -0.387799         2.409641         1.717097
 H         0.304681        -0.414978         0.630847
 H        -2.210170         0.065196        -0.241384
 H        -2.777323         0.852355         1.254410
 H        -1.530973         2.170907        -1.275648
 H        -2.237937         3.778640         1.288531
 H        -0.619414         4.536022        -0.695942
 H        -0.264788         5.248337         0.914633
 H         1.867848         2.344498         1.310612
 H         1.420456         3.703850         2.192228
 H        -0.544684         2.346313         2.713597
