19
Iteration:  3790
 O         0.083956         0.042990         0.335794
 C        -0.688160         1.163119         0.547179
 C        -2.191478         0.909581         0.462459
 C        -1.540596         2.075293        -0.384725
 C        -1.269798         3.250127         0.702715
 C        -0.288544         4.253294         0.047024
 O         0.875683         4.335974         0.847633
 C         1.077788         3.080676         1.476789
 C        -0.290779         2.246557         1.533112
 H         0.695589         0.247212        -0.344933
 H        -2.259519        -0.161290         0.134138
 H        -2.868346         1.189144         1.397249
 H        -1.982031         2.286625        -1.371285
 H        -2.198142         3.732474         1.162253
 H         0.080936         3.780474        -0.918865
 H        -0.737746         5.194491        -0.062266
 H         1.896058         2.491130         0.848513
 H         1.461197         3.124596         2.525874
 H        -0.540835         2.089570         2.591513
