19
Iteration:  3284charge 0 multiplicity 1
 O         0.345492         0.326722         0.353552
 C        -0.674541         1.167697         0.608183
 C        -2.128792         0.853697         0.530562
 C        -1.507608         2.063776        -0.288354
 C        -1.376119         3.296849         0.612490
 C        -0.340636         4.400980         0.343959
 O         0.942908         3.817027         0.354756
 C         0.936305         3.045136         1.504039
 C        -0.425227         2.356126         1.592270
 H         0.389984         0.130121        -0.618128
 H        -2.502732         0.067013        -0.116333
 H        -2.905220         1.021868         1.309245
 H        -1.727658         2.151561        -1.346937
 H        -2.206054         3.604299         1.100135
 H        -0.450573         5.001790        -0.639526
 H        -0.260866         5.089243         1.209539
 H         1.817274         2.420096         1.494510
 H         0.801012         3.733452         2.340786
 H        -0.753191         2.038540         2.591007
