19
Iteration:  3640
 O         0.209263        -0.013905         0.320749
 C        -0.694489         1.063405         0.611241
 C        -2.184634         1.000075         0.675152
 C        -1.535176         1.974563        -0.334695
 C        -1.220515         3.233919         0.534865
 C        -0.309429         4.373704         0.050871
 O         0.828405         4.376783         0.906612
 C         1.045597         2.948303         1.318028
 C        -0.356587         2.317467         1.505627
 H         0.704717         0.208838        -0.541953
 H        -2.695995         0.201336         0.109594
 H        -2.778608         1.409603         1.518725
 H        -1.809676         2.094519        -1.400479
 H        -2.155595         3.625480         0.967679
 H        -0.159046         4.356434        -1.081292
 H        -0.766880         5.469212         0.167389
 H         1.845088         2.190162         0.874828
 H         1.474701         3.168014         2.309881
 H        -0.591457         2.307063         2.620045
