19
Iteration:  4328charge 0 multiplicity 1
 O         0.245876         0.152263         0.258410
 C        -0.666893         1.146532         0.634139
 C        -2.175758         0.971225         0.571685
 C        -1.529638         1.936561        -0.319500
 C        -1.282220         3.210884         0.440337
 C        -0.205020         4.422722         0.142837
 O         0.852644         4.326464         1.035659
 C         0.995005         2.869886         1.251301
 C        -0.452959         2.354768         1.480447
 H         0.246432        -0.595275         0.985501
 H        -2.412091        -0.026571         0.124560
 H        -2.807219         1.248469         1.468117
 H        -1.556314         1.678590        -1.386637
 H        -2.167859         3.669307         1.002457
 H         0.293389         4.485121        -0.870758
 H        -0.790978         5.257330         0.376123
 H         1.186412         2.470863         0.236743
 H         1.813519         2.582475         2.039463
 H        -0.962217         2.407851         2.414654
