19
Iteration:  4177charge 0 multiplicity 1
 O         0.308034         0.206416         0.255671
 C        -0.686281         1.211076         0.572581
 C        -2.215257         0.892970         0.523742
 C        -1.628844         2.029641        -0.310028
 C        -1.290362         3.311744         0.571189
 C        -0.255406         4.209980         0.065632
 O         0.936367         4.284838         0.926084
 C         0.974106         2.920100         1.349242
 C        -0.423293         2.331250         1.555765
 H         0.436626        -0.217454         1.193308
 H        -2.434295         0.029995        -0.122125
 H        -2.983025         0.969340         1.364064
 H        -1.762584         1.974649        -1.378777
 H        -2.144160         3.697863         1.091056
 H        -0.094123         4.003316        -0.978207
 H        -0.521686         5.308913         0.027084
 H         1.502573         2.262575         0.655305
 H         1.592691         2.871441         2.180198
 H        -0.587744         2.147973         2.629228
