19
Iteration:  4228
 O         0.219323         0.177840         0.308261
 C        -0.676491         1.073285         0.681735
 C        -2.166006         0.943967         0.479083
 C        -1.549437         1.994847        -0.372778
 C        -1.248726         3.188204         0.614904
 C        -0.314183         4.355176         0.111052
 O         0.934182         4.324892         0.796529
 C         1.054430         2.949833         1.463269
 C        -0.432114         2.341661         1.522885
 H        -0.214574        -0.660211        -0.081301
 H        -2.432238         0.024954        -0.019465
 H        -2.892395         1.221859         1.340804
 H        -1.738907         2.218077        -1.429248
 H        -2.268255         3.495474         1.065913
 H        -0.132182         4.290264        -1.014140
 H        -0.786676         5.311622         0.235419
 H         1.636394         2.294839         0.747684
 H         1.731211         3.035656         2.440435
 H        -0.752813         2.346349         2.546846
