19
Iteration:  4542
 O         0.208382         0.043391         0.360422
 C        -0.671446         1.118159         0.562877
 C        -2.082072         0.893788         0.607976
 C        -1.599224         2.049731        -0.326923
 C        -1.321722         3.264972         0.545220
 C        -0.334614         4.357641         0.134236
 O         0.944774         4.262039         0.830304
 C         0.978691         2.973451         1.403061
 C        -0.383164         2.363523         1.442751
 H         0.934099         0.156762        -0.338001
 H        -2.715823         0.085508         0.108341
 H        -2.685397         1.308261         1.433686
 H        -1.634209         2.032953        -1.430489
 H        -2.307677         3.623258         1.050640
 H        -0.118809         4.440867        -0.939401
 H        -0.666493         5.394130         0.435018
 H         1.767203         2.465993         0.874783
 H         1.328677         2.931294         2.409374
 H        -0.780991         2.194808         2.425353
