19
Iteration:  3725charge 0 multiplicity 1
 O         0.302993         0.336513         0.234217
 C        -0.731244         1.171527         0.616208
 C        -2.237173         0.945339         0.560317
 C        -1.644161         1.919757        -0.315739
 C        -1.304663         3.277808         0.594891
 C        -0.258910         4.211178         0.003903
 O         0.891463         4.240224         0.990317
 C         1.074799         2.883529         1.325988
 C        -0.360708         2.377584         1.497021
 H         0.481770        -0.259935         0.929474
 H        -2.441142        -0.099103         0.143940
 H        -2.920737         1.136122         1.498064
 H        -1.980586         1.964036        -1.366519
 H        -2.093291         3.919457         1.216905
 H         0.086757         3.733833        -0.882426
 H        -0.397529         5.237398        -0.159488
 H         1.388507         2.339619         0.483802
 H         1.721087         2.968823         2.167242
 H        -0.801780         2.181854         2.493699
