19
Iteration:  3238
 O         0.261368         0.254701         0.297012
 C        -0.689532         1.210150         0.619495
 C        -2.080206         0.992470         0.412431
 C        -1.478415         2.116281        -0.246557
 C        -1.290358         3.209212         0.801261
 C        -0.449655         4.334415         0.161587
 O         0.928444         3.921043         0.405375
 C         0.937360         3.120365         1.592391
 C        -0.323246         2.255944         1.624650
 H        -0.301014        -0.563192        -0.052236
 H        -2.189286         0.234060        -0.391864
 H        -2.839231         0.961205         1.201933
 H        -1.402937         2.265464        -1.340558
 H        -2.248179         3.523704         1.072551
 H        -0.477117         4.340902        -1.000310
 H        -0.642763         5.325108         0.625440
 H         1.809650         2.341850         1.439157
 H         0.931667         3.761792         2.446496
 H        -0.572757         1.908885         2.677555
