19
Iteration:  4309charge 0 multiplicity 1
 O         0.257990         0.217927         0.304673
 C        -0.763689         1.091645         0.674503
 C        -2.185191         0.808463         0.600088
 C        -1.418571         1.946524        -0.370035
 C        -1.226061         3.353728         0.480196
 C        -0.276530         4.423659         0.110319
 O         0.849002         4.260296         1.086686
 C         0.994946         2.870722         1.160835
 C        -0.421359         2.369385         1.497060
 H        -0.077360        -0.773675         0.503431
 H        -2.748188        -0.019161        -0.012099
 H        -2.919918         1.307269         1.433372
 H        -1.631835         1.886991        -1.459677
 H        -2.268163         3.781895         0.830513
 H         0.156941         4.398022        -0.966080
 H        -0.676339         5.518169         0.123846
 H         1.517439         2.410155         0.316518
 H         1.570680         2.747772         2.068350
 H        -0.465219         2.506075         2.583031
