19
Iteration:   532
 O         0.371067         0.318848         0.155857
 C        -0.675945         1.260728         0.641611
 C        -2.126761         0.763921         0.560202
 C        -1.679194         2.079832        -0.114284
 C        -1.341394         3.404666         0.806390
 C        -0.280210         4.455627         0.269743
 O         0.895478         3.722752         0.215996
 C         0.918682         2.956230         1.427316
 C        -0.383609         2.438218         1.605981
 H         0.562369        -0.219763         0.982335
 H        -2.238504        -0.055045        -0.114781
 H        -2.624823         0.718478         1.504977
 H        -1.878344         2.166611        -1.151677
 H        -2.033846         3.882589         1.502511
 H        -0.507519         4.857412        -0.775723
 H        -0.319893         5.326736         0.932218
 H         1.699140         2.295531         1.432347
 H         1.086033         3.601860         2.229741
 H        -0.578348         2.220178         2.621944
