19
Iteration:   253charge 0 multiplicity 1
 O         0.244999         0.263411         0.124842
 C        -0.662037         1.258599         0.563763
 C        -2.067500         0.868094         0.646190
 C        -1.759249         2.125935        -0.162478
 C        -1.350112         3.255443         0.787418
 C        -0.414755         4.337070         0.131483
 O         1.017177         3.846352         0.380588
 C         1.018072         3.109755         1.514173
 C        -0.267022         2.354079         1.556947
 H         0.323102        -0.325861         0.857939
 H        -2.278832         0.022139        -0.045144
 H        -2.666256         0.831314         1.583508
 H        -2.167702         2.220780        -1.198193
 H        -2.310917         3.485657         1.394898
 H        -0.614352         4.360311        -0.921105
 H        -0.565483         5.381363         0.604210
 H         1.962630         2.503114         1.632908
 H         1.190780         3.770644         2.468149
 H        -0.421746         2.061885         2.566565
