19
Iteration:  3037charge 0 multiplicity 1
 O         0.275856         0.249841         0.330682
 C        -0.697204         1.274655         0.561279
 C        -2.060186         0.880414         0.497921
 C        -1.522209         2.128806        -0.259065
 C        -1.412927         3.321494         0.716896
 C        -0.371964         4.414132         0.207248
 O         0.943601         3.833281         0.404825
 C         0.944705         2.979031         1.533777
 C        -0.405267         2.304990         1.652004
 H         0.549679         0.387540        -0.525821
 H        -2.035629         0.000206        -0.151769
 H        -2.599110         0.947251         1.424944
 H        -1.580462         2.175211        -1.374118
 H        -2.266242         3.728648         1.058691
 H        -0.481861         4.655196        -0.806918
 H        -0.590930         5.262966         0.881767
 H         1.679733         2.032572         1.302134
 H         1.494527         3.511446         2.328487
 H        -0.772866         2.098194         2.672769
