19
Iteration:  1471charge 0 multiplicity 1
 O         0.288524         0.247264         0.326465
 C        -0.646038         1.252670         0.506498
 C        -2.156587         1.042615         0.581252
 C        -1.558070         2.110602        -0.278299
 C        -1.289468         3.150325         0.743191
 C        -0.420627         4.411259         0.348516
 O         0.909027         3.916524         0.268962
 C         1.007553         2.983212         1.384426
 C        -0.333011         2.251669         1.610629
 H         0.277976        -0.107601         1.208581
 H        -2.554244         0.154667         0.097262
 H        -2.723890         1.275211         1.539677
 H        -1.645378         2.233926        -1.375446
 H        -2.243326         3.612054         1.123804
 H        -0.856809         4.781421        -0.556812
 H        -0.609347         5.135803         1.179789
 H         1.765470         2.174422         1.118315
 H         1.457944         3.538334         2.277061
 H        -0.658678         1.926082         2.586502
