19
Iteration:  2755charge 0 multiplicity 1
 O         0.289522         0.077319         0.308683
 C        -0.615780         1.166263         0.577166
 C        -2.157498         0.926810         0.633699
 C        -1.574813         2.085560        -0.271889
 C        -1.399362         3.280441         0.770697
 C        -0.395913         4.444477         0.240503
 O         0.950294         3.851681         0.282024
 C         1.001865         3.122930         1.489139
 C        -0.346944         2.383400         1.623785
 H         0.821389         0.343980        -0.591459
 H        -2.464741         0.224439        -0.125004
 H        -2.922499         1.145370         1.379115
 H        -1.774925         2.054310        -1.328015
 H        -2.442320         3.574338         1.174833
 H        -0.535233         4.875815        -0.819232
 H        -0.521300         5.159418         1.028845
 H         1.924563         2.636633         1.550386
 H         1.145154         3.807459         2.316967
 H        -0.592656         2.156493         2.698584
