19
Iteration:  3279
 O         0.346124         0.274979         0.319024
 C        -0.638974         1.172443         0.622791
 C        -2.130294         0.884052         0.545093
 C        -1.516629         2.115674        -0.280831
 C        -1.340104         3.251802         0.589317
 C        -0.346465         4.436504         0.335384
 O         0.925755         3.787824         0.338960
 C         0.892214         3.097737         1.540245
 C        -0.411615         2.331599         1.604668
 H         0.300604         0.033567        -0.595795
 H        -2.431591         0.085411        -0.167065
 H        -2.945324         0.977063         1.263475
 H        -1.621301         2.131300        -1.383710
 H        -2.335661         3.549391         1.208806
 H        -0.452673         4.962453        -0.575197
 H        -0.404679         5.258468         1.102728
 H         1.821592         2.364770         1.501258
 H         1.008465         3.749150         2.479407
 H        -0.770168         2.173546         2.651462
