19
Iteration:  4075charge 0 multiplicity 1
 O         0.252438         0.130765         0.299647
 C        -0.728531         1.110143         0.525345
 C        -2.160844         0.923622         0.610704
 C        -1.653564         2.046471        -0.342225
 C        -1.192440         3.278918         0.528111
 C        -0.243088         4.300788         0.043168
 O         0.821973         4.352801         0.947322
 C         1.045790         2.971796         1.462647
 C        -0.339015         2.303562         1.421526
 H        -0.022713        -0.784424         0.324046
 H        -2.600309         0.012263         0.068621
 H        -2.811627         1.113595         1.576467
 H        -1.961893         1.792033        -1.366661
 H        -2.036478         3.769206         1.120413
 H         0.170940         3.992710        -0.991348
 H        -0.557838         5.307951         0.022720
 H         1.689641         2.274326         0.854709
 H         1.439954         3.215471         2.509017
 H        -0.629547         2.137461         2.447548
