19
Iteration:    86
 O         0.325234         0.046702         0.290537
 C        -0.657850         1.138918         0.641740
 C        -2.141164         0.956272         0.598529
 C        -1.582161         2.160887        -0.219518
 C        -1.303984         3.286820         0.749301
 C        -0.476796         4.473199         0.317566
 O         0.905589         4.029264         0.274168
 C         0.997682         3.034962         1.304076
 C        -0.316742         2.307788         1.549580
 H         0.252989        -0.719022         1.008964
 H        -2.246020         0.042378         0.062705
 H        -2.718240         1.146617         1.480598
 H        -1.554545         2.118563        -1.278907
 H        -2.193309         3.602805         1.445002
 H        -0.729798         4.755804        -0.643071
 H        -0.498621         5.213517         1.134467
 H         1.713869         2.291097         1.057681
 H         1.134224         3.539373         2.277937
 H        -0.468879         2.262413         2.604072
