19
Iteration:   751
 O         0.338911         0.373674         0.130740
 C        -0.655829         1.302500         0.601345
 C        -2.055407         0.841638         0.639068
 C        -1.579284         2.150622        -0.164176
 C        -1.358519         3.321142         0.828027
 C        -0.336212         4.335522         0.215149
 O         0.908014         3.685970         0.210431
 C         0.935610         3.037330         1.503769
 C        -0.410473         2.367799         1.673686
 H        -0.153565        -0.440477         0.398568
 H        -2.246247        -0.031488         0.066808
 H        -2.684851         0.903678         1.490766
 H        -1.655888         2.326174        -1.282296
 H        -2.324408         3.685150         1.214022
 H        -0.451822         4.711738        -0.842014
 H        -0.334344         5.224537         0.919498
 H         1.642593         2.310997         1.406372
 H         1.070579         3.780521         2.329282
 H        -0.675066         2.069145         2.759392
