19
Iteration:  3657
 O         0.131717         0.070177         0.337975
 C        -0.689946         1.116625         0.597625
 C        -2.210476         0.975808         0.601828
 C        -1.503621         2.014560        -0.314235
 C        -1.182550         3.193649         0.560139
 C        -0.356090         4.316299         0.053264
 O         0.837278         4.328185         0.865791
 C         1.105311         3.060390         1.461942
 C        -0.274135         2.290678         1.422504
 H         0.129123        -0.088897        -0.642657
 H        -2.617967         0.024685         0.205692
 H        -2.823883         1.327691         1.475272
 H        -1.792381         1.844118        -1.370965
 H        -2.059257         3.458966         1.211204
 H        -0.070595         4.154192        -0.980520
 H        -0.919020         5.166897         0.109369
 H         1.672119         2.642696         0.721829
 H         1.512270         3.097646         2.475723
 H        -0.585739         2.165289         2.452100
