19
Iteration:   338
 O         0.357838         0.189070         0.348829
 C        -0.694872         1.128854         0.671795
 C        -2.190790         0.912930         0.406931
 C        -1.493705         2.140852        -0.130953
 C        -1.347457         3.334365         0.870649
 C        -0.402515         4.455924         0.383331
 O         0.820180         3.874661         0.168388
 C         1.059139         3.002915         1.296922
 C        -0.343035         2.360218         1.551180
 H         0.341405        -0.456872         1.182411
 H        -2.259484         0.146484        -0.345187
 H        -3.010715         0.964490         1.076151
 H        -1.699807         2.233725        -1.238013
 H        -2.299007         3.722217         1.356524
 H        -0.738931         4.940241        -0.506777
 H        -0.211438         5.188133         1.174951
 H         1.878276         2.378123         1.059464
 H         1.275139         3.564535         2.185140
 H        -0.553266         2.038215         2.664716
