19
Iteration:  1384charge 0 multiplicity 1
 O         0.367847         0.296189         0.236363
 C        -0.670916         1.204497         0.582841
 C        -2.149433         0.979158         0.612578
 C        -1.603246         2.124686        -0.235341
 C        -1.320211         3.287025         0.765011
 C        -0.399556         4.345782         0.246177
 O         0.889503         3.858946         0.322117
 C         0.987580         2.967212         1.410944
 C        -0.341019         2.315557         1.607921
 H         0.309159        -0.620002         0.759659
 H        -2.555344         0.008007         0.194951
 H        -2.631918         1.289517         1.556927
 H        -1.935890         2.277142        -1.244138
 H        -2.223955         3.731623         1.111747
 H        -0.481922         4.614256        -0.816315
 H        -0.490993         5.303614         0.866532
 H         1.905575         2.403827         1.376997
 H         1.251735         3.586031         2.307694
 H        -0.687744         2.010708         2.552035
