19
Iteration:  3246
 O         0.258655         0.201800         0.277027
 C        -0.614082         1.220295         0.597007
 C        -2.077670         0.930342         0.462230
 C        -1.379378         2.203205        -0.245185
 C        -1.394939         3.217935         0.774074
 C        -0.425437         4.320754         0.187791
 O         0.929736         3.867696         0.399299
 C         0.895037         3.145992         1.558949
 C        -0.362877         2.270422         1.649123
 H        -0.286940        -0.469633        -0.316786
 H        -2.340207         0.210361        -0.320122
 H        -2.835599         1.235003         1.179699
 H        -1.438954         2.439922        -1.315410
 H        -2.464336         3.538738         1.244940
 H        -0.477428         4.242945        -0.865620
 H        -0.689011         5.343264         0.554165
 H         1.894776         2.465310         1.505505
 H         1.097115         3.747165         2.466717
 H        -0.544032         2.197802         2.735560
