19
Iteration:  4251
 O         0.219124         0.063952         0.446602
 C        -0.657035         1.167456         0.528707
 C        -2.199637         0.932100         0.416577
 C        -1.562293         2.142826        -0.275091
 C        -1.264503         3.301172         0.709444
 C        -0.363331         4.331069         0.049253
 O         0.835282         4.247794         0.831354
 C         1.067146         3.000076         1.365565
 C        -0.301263         2.259654         1.514189
 H        -0.164914        -0.631704         0.006284
 H        -2.246677         0.217767        -0.431028
 H        -3.021229         0.754539         1.244489
 H        -1.370918         2.268487        -1.341240
 H        -2.287140         3.644341         1.147429
 H        -0.013609         3.971889        -0.978617
 H        -0.724484         5.298150        -0.016102
 H         1.818002         2.440447         0.750988
 H         1.551510         3.114337         2.433688
 H        -0.432953         2.107740         2.550342
