19
Iteration:  2602
 O         0.247828         0.230252         0.191629
 C        -0.663192         1.228232         0.649077
 C        -2.093826         0.961812         0.533136
 C        -1.555250         2.090446        -0.201753
 C        -1.375116         3.311254         0.791285
 C        -0.426947         4.249006         0.178653
 O         0.900993         3.764720         0.291448
 C         1.007058         3.099988         1.553627
 C        -0.319301         2.404834         1.661552
 H         1.054525         0.886013         0.152030
 H        -2.385113         0.089000        -0.044335
 H        -2.589185         1.009577         1.465973
 H        -1.824917         2.220941        -1.267904
 H        -2.205994         3.607880         1.259337
 H        -0.677081         4.412496        -0.910706
 H        -0.487077         5.250745         0.671811
 H         1.879810         2.344257         1.397091
 H         1.166161         3.815081         2.353358
 H        -0.586549         2.061377         2.695685
