19
Iteration:  2321
 O         0.374090         0.369456         0.274606
 C        -0.737953         1.178458         0.699834
 C        -2.107740         0.782603         0.600303
 C        -1.591673         2.145643        -0.252043
 C        -1.312294         3.341877         0.687977
 C        -0.413445         4.441486         0.354712
 O         0.956880         3.786680         0.263713
 C         0.994391         2.975524         1.405356
 C        -0.438909         2.364507         1.537590
 H         0.183692        -0.506305         0.424747
 H        -2.465395         0.023487        -0.099634
 H        -2.936292         0.934475         1.442940
 H        -1.413862         2.199517        -1.313395
 H        -2.183139         3.585407         1.197424
 H        -0.531575         5.079833        -0.577339
 H        -0.420057         5.081940         1.225353
 H         1.650467         2.149319         1.137842
 H         1.323547         3.434577         2.387889
 H        -0.596727         2.532892         2.640723
