19
Iteration:  2546charge 0 multiplicity 1
 O         0.355126         0.277951         0.265432
 C        -0.682195         1.211232         0.620804
 C        -2.155281         0.932189         0.635219
 C        -1.630737         2.045057        -0.216025
 C        -1.360922         3.261858         0.714704
 C        -0.383667         4.360392         0.235369
 O         0.954258         3.838292         0.278556
 C         1.005363         3.000515         1.481608
 C        -0.431675         2.365751         1.642948
 H         0.893396         0.785314        -0.369877
 H        -2.426244         0.074007         0.083958
 H        -2.688401         1.367020         1.429440
 H        -1.515824         2.175816        -1.322118
 H        -2.309798         3.701957         1.030353
 H        -0.620800         4.749766        -0.764974
 H        -0.517297         5.140067         1.031205
 H         1.932190         2.274888         1.302261
 H         1.350967         3.536442         2.358740
 H        -0.769640         1.975884         2.633625
