19
Iteration:  3765
 O         0.183175         0.101765         0.185381
 C        -0.680662         1.152015         0.617985
 C        -2.162673         0.923451         0.580506
 C        -1.600038         2.027569        -0.241282
 C        -1.245797         3.301104         0.596932
 C        -0.249807         4.342158        -0.029474
 O         0.864629         4.229899         0.895417
 C         1.014079         2.976265         1.441253
 C        -0.429221         2.319337         1.542761
 H         1.160783         0.337581         0.497129
 H        -2.470273         0.145320        -0.114665
 H        -2.758494         1.108681         1.412550
 H        -1.711493         1.730238        -1.310916
 H        -2.060029         3.690123         1.067762
 H         0.163198         4.019828        -1.082465
 H        -0.711304         5.338711         0.033727
 H         1.683205         2.355153         0.698398
 H         1.625936         2.788020         2.380092
 H        -0.836859         2.457891         2.530521
