19
Iteration:  4415
 O         0.262043         0.236200         0.163704
 C        -0.729077         1.145979         0.661443
 C        -2.189741         0.906616         0.625633
 C        -1.544926         2.019596        -0.303941
 C        -1.228559         3.232079         0.518766
 C        -0.246004         4.325332        -0.009094
 O         0.814998         4.265022         0.962955
 C         0.999573         2.910413         1.417082
 C        -0.349597         2.336399         1.530244
 H        -0.018107        -0.687553         0.468999
 H        -2.474163         0.018908         0.023736
 H        -2.836745         1.110975         1.401573
 H        -1.706505         2.139722        -1.393060
 H        -2.135406         3.547713         0.963277
 H         0.238875         4.021302        -0.963734
 H        -0.690362         5.290653        -0.006575
 H         1.627676         2.415676         0.661033
 H         1.490107         3.082559         2.442613
 H        -0.658709         2.312054         2.603121
