19
Iteration:  2965
 O         0.342163         0.271731         0.158686
 C        -0.627986         1.205024         0.630320
 C        -2.126448         0.894088         0.526055
 C        -1.526071         2.086867        -0.261966
 C        -1.424614         3.316826         0.695041
 C        -0.342577         4.389379         0.282909
 O         0.938299         3.837810         0.339504
 C         0.942038         2.970223         1.548514
 C        -0.449212         2.448282         1.658179
 H         0.258122        -0.435346         0.740746
 H        -2.406438         0.036932        -0.106403
 H        -2.539626         1.019511         1.549003
 H        -1.449676         1.973621        -1.320012
 H        -2.453924         3.824264         1.036877
 H        -0.609754         4.617576        -0.815173
 H        -0.458572         5.243429         0.984819
 H         1.656768         2.272652         1.408536
 H         1.359793         3.572975         2.372723
 H        -0.572915         2.168819         2.712403
