19
Iteration:  3146charge 0 multiplicity 1
 O         0.345179         0.317682         0.267460
 C        -0.713704         1.120181         0.670234
 C        -2.150875         0.910857         0.366682
 C        -1.506901         2.184305        -0.247289
 C        -1.288320         3.215571         0.796088
 C        -0.364576         4.412265         0.249238
 O         0.928985         3.818905         0.311751
 C         0.925566         3.070938         1.527788
 C        -0.437722         2.294028         1.641971
 H         0.428134        -0.541312         0.769766
 H        -2.298287         0.096744        -0.340615
 H        -3.018738         1.002495         1.017795
 H        -1.400534         2.486922        -1.287009
 H        -2.244716         3.730554         1.178328
 H        -0.585305         4.674649        -0.731390
 H        -0.446884         5.244214         1.008834
 H         1.884061         2.442327         1.540691
 H         0.923802         3.836712         2.281075
 H        -0.576310         2.113774         2.725777
