19
Iteration:  1103charge 0 multiplicity 1
 O         0.309850         0.374791         0.186057
 C        -0.713041         1.136123         0.686401
 C        -2.124335         0.824657         0.488393
 C        -1.679309         2.178613        -0.126213
 C        -1.328600         3.284689         0.841924
 C        -0.441642         4.384429         0.213769
 O         1.004335         3.751568         0.170237
 C         1.032980         3.037839         1.503243
 C        -0.352715         2.338458         1.671259
 H         0.398648        -0.433783         0.611613
 H        -2.125630         0.113318        -0.297594
 H        -3.024503         0.524756         1.122478
 H        -1.807828         2.511132        -1.174218
 H        -2.045173         3.860418         1.593134
 H        -0.659455         4.809656        -0.812819
 H        -0.377018         5.366233         0.790906
 H         1.989824         2.547913         1.531209
 H         1.122002         3.777262         2.381085
 H        -0.605227         2.450587         2.690159
