19
Iteration:   597
 O         0.258130         0.155674         0.288587
 C        -0.612701         1.122605         0.723927
 C        -2.137218         0.925082         0.508303
 C        -1.507790         2.111524        -0.160363
 C        -1.310902         3.287839         0.743187
 C        -0.406799         4.440730         0.347481
 O         0.888577         3.937633         0.189729
 C         0.989717         3.058745         1.330349
 C        -0.328848         2.354237         1.666935
 H        -0.378331        -0.688630         0.239647
 H        -2.385752         0.263355        -0.331224
 H        -2.805062         0.900377         1.326094
 H        -1.601904         2.099758        -1.232758
 H        -2.250149         3.666490         1.230431
 H        -0.647013         4.960348        -0.652938
 H        -0.454979         5.126489         1.162154
 H         1.752305         2.359536         1.158722
 H         1.295087         3.645115         2.227181
 H        -0.481044         2.337585         2.789218
