19
Iteration:  2002
 O         0.235378         0.115402         0.272311
 C        -0.634563         1.195758         0.592397
 C        -2.125514         0.826911         0.514932
 C        -1.593851         2.042967        -0.209683
 C        -1.343008         3.305134         0.741134
 C        -0.295416         4.526580         0.320871
 O         0.909605         3.871403         0.295207
 C         0.996145         3.105721         1.436192
 C        -0.355500         2.387068         1.541201
 H         0.064007        -0.670237         0.938961
 H        -2.279958        -0.072196        -0.073262
 H        -2.680516         1.091297         1.449312
 H        -1.841287         2.267005        -1.248206
 H        -2.236057         3.710901         1.270556
 H        -0.476430         5.033832        -0.619880
 H        -0.406814         5.298134         1.057749
 H         1.833229         2.530489         1.392436
 H         1.081276         3.685605         2.443964
 H        -0.544064         2.421117         2.543565
