19
Iteration:  3869charge 0 multiplicity 1
 O         0.323156         0.252906         0.411149
 C        -0.728379         1.113395         0.678823
 C        -2.186940         0.945865         0.589449
 C        -1.636399         1.977186        -0.371847
 C        -1.273551         3.252340         0.499399
 C        -0.204404         4.407385         0.070190
 O         0.794521         4.217440         1.071481
 C         1.111070         2.830409         1.223988
 C        -0.405354         2.337429         1.417212
 H         0.148233        -0.363732        -0.224336
 H        -2.613158         0.185197        -0.139010
 H        -3.081818         1.110742         1.380140
 H        -1.881216         1.914744        -1.430603
 H        -2.179523         3.744566         1.039057
 H         0.332223         4.172920        -0.926080
 H        -0.534999         5.504946        -0.032776
 H         1.423134         2.403903         0.226733
 H         1.719411         2.719885         2.129463
 H        -0.716149         2.496773         2.495014
