19
Iteration:  4770charge 0 multiplicity 1
 O         0.368281         0.309333         0.278781
 C        -0.736020         1.134846         0.620162
 C        -2.192195         0.873696         0.694170
 C        -1.650581         1.980643        -0.311665
 C        -1.324820         3.295164         0.482639
 C        -0.327700         4.332658         0.119832
 O         0.926182         4.180159         0.767578
 C         1.058740         2.911136         1.492724
 C        -0.381930         2.347781         1.472813
 H        -0.061077        -0.275379        -0.446936
 H        -2.386352         0.008368         0.001542
 H        -2.881144         1.174717         1.622854
 H        -1.774232         1.873681        -1.409420
 H        -2.237628         3.728635         0.855519
 H        -0.087864         4.059523        -0.882064
 H        -0.662179         5.413638         0.275789
 H         1.758260         2.261700         0.951544
 H         1.597463         3.016933         2.377929
 H        -0.708051         2.182213         2.573315
