19
Iteration:  2243
 O         0.219848         0.264280         0.149642
 C        -0.673450         1.110225         0.702340
 C        -2.143198         0.866195         0.515952
 C        -1.520728         2.038405        -0.173211
 C        -1.326009         3.328689         0.794851
 C        -0.393940         4.386741         0.262188
 O         0.934173         3.899161         0.276345
 C         1.025531         3.098139         1.501309
 C        -0.382237         2.386623         1.558264
 H         0.105646        -0.669899         0.571715
 H        -2.175648        -0.212733         0.094549
 H        -2.876491         1.108688         1.322702
 H        -1.249529         2.225649        -1.214300
 H        -2.159022         3.700348         1.261724
 H        -0.391560         4.823438        -0.761385
 H        -0.555772         5.122246         0.995523
 H         1.786453         2.416344         1.407062
 H         1.249204         3.714931         2.397146
 H        -0.620711         2.349916         2.650115
