19
Iteration:  3289
 O         0.363448         0.359138         0.381826
 C        -0.720958         1.190773         0.596472
 C        -2.141045         0.842832         0.509046
 C        -1.518557         2.015588        -0.293748
 C        -1.369061         3.317545         0.660982
 C        -0.339500         4.381733         0.333843
 O         0.968164         3.845517         0.346350
 C         0.955242         2.990198         1.485827
 C        -0.455003         2.356416         1.560010
 H         0.493543         0.241656        -0.608627
 H        -2.456969         0.000137        -0.122905
 H        -2.736604         1.116820         1.380400
 H        -1.770450         2.094367        -1.358999
 H        -2.388806         3.824770         1.087300
 H        -0.452950         4.927889        -0.541581
 H        -0.331225         4.981662         1.282293
 H         1.918616         2.395450         1.576791
 H         0.817489         3.734621         2.338227
 H        -0.715505         2.036442         2.580361
