19
Iteration:  4261charge 0 multiplicity 1
 O         0.227988         0.079010         0.484830
 C        -0.676341         1.123276         0.564640
 C        -2.133925         0.982253         0.346517
 C        -1.557646         2.149943        -0.288240
 C        -1.309376         3.249123         0.749641
 C        -0.324323         4.292515         0.037375
 O         0.803224         4.331651         0.839960
 C         1.116577         2.923844         1.373738
 C        -0.340529         2.279114         1.467971
 H        -0.155130        -0.642766         0.079294
 H        -2.337876         0.168110        -0.336937
 H        -2.840350         1.035142         1.210406
 H        -1.752974         2.496298        -1.307541
 H        -2.241739         3.559117         1.343439
 H        -0.189513         3.779159        -1.017464
 H        -0.536894         5.317384        -0.038219
 H         1.628177         2.397391         0.536378
 H         1.762965         3.140598         2.337801
 H        -0.520503         1.965621         2.494903
