19
Iteration:  2672charge 0 multiplicity 1
 O         0.285285         0.352931         0.328083
 C        -0.680111         1.200582         0.667514
 C        -2.042899         0.875257         0.549405
 C        -1.656525         2.095166        -0.211107
 C        -1.390547         3.309025         0.797948
 C        -0.342944         4.365787         0.192939
 O         0.964072         3.828990         0.278525
 C         0.993980         2.964033         1.423937
 C        -0.430658         2.319050         1.604280
 H         1.079293         0.712546        -0.109963
 H        -2.191950        -0.119375         0.133275
 H        -2.664137         0.934012         1.527658
 H        -1.764786         2.146509        -1.290849
 H        -2.302213         3.870096         1.128450
 H        -0.625523         4.644254        -0.841661
 H        -0.540123         5.316464         0.796724
 H         1.642344         2.197874         1.146833
 H         1.146053         3.579484         2.339891
 H        -0.562985         2.029883         2.657277
