19
Iteration:  2145
 O         0.249711         0.387315         0.138678
 C        -0.645529         1.164784         0.726698
 C        -2.122432         0.906754         0.504185
 C        -1.459411         2.138240        -0.162143
 C        -1.297733         3.300910         0.740684
 C        -0.450347         4.377487         0.201801
 O         0.858265         3.708600         0.237933
 C         0.998546         3.041793         1.548772
 C        -0.335914         2.377113         1.722699
 H         0.303680        -0.491622         0.665569
 H        -2.207060         0.046031        -0.248425
 H        -2.925177         0.917847         1.291796
 H        -1.636038         2.238592        -1.269028
 H        -2.291571         3.584643         1.188552
 H        -0.655967         4.760119        -0.817934
 H        -0.322039         5.269712         0.874942
 H         1.739433         2.372377         1.315947
 H         1.362369         3.686605         2.381591
 H        -0.730205         2.169415         2.683710
