19
Iteration:  2082
 O         0.100439        -0.011531         0.953068
 C        -0.644391         1.227569         0.784919
 C        -2.058842         1.119625         0.465670
 C        -1.717386         1.865111         1.739809
 C        -1.127796         3.233029         1.530758
 O        -0.543133         3.800921         2.703804
 C         0.789848         3.240645         2.776142
 C         1.259895         3.019754         1.385316
 C         0.013681         2.623695         0.538844
 H        -0.264853        -0.586643         0.276529
 H        -2.423275         1.638015        -0.408358
 H        -2.321708         0.014696         0.561098
 H        -2.115581         1.600463         2.672172
 H        -1.623745         4.097041         0.983771
 H         1.332126         4.142957         3.220419
 H         0.802037         2.405801         3.358466
 H         1.534953         4.070306         1.046504
 H         2.140826         2.418964         1.421723
 H         0.094738         3.075670        -0.486535
