19
Iteration:   727
 O         0.014531         0.072223         1.157404
 C        -0.626340         1.253122         0.777390
 C        -2.063437         1.193821         0.359159
 C        -1.671840         1.686835         1.750760
 C        -1.199834         3.224075         1.521916
 O        -0.472143         3.816152         2.622407
 C         0.859457         3.245597         2.724024
 C         1.286968         2.964054         1.353271
 C        -0.045026         2.665164         0.599101
 H         0.434218        -0.197637         0.363118
 H        -2.515648         1.908116        -0.449204
 H        -2.515675         0.259851         0.482548
 H        -2.151379         1.336487         2.722946
 H        -1.933611         3.865898         0.953385
 H         1.446646         3.977183         3.215864
 H         0.724652         2.267023         3.236261
 H         1.745002         3.844465         0.784022
 H         1.893162         2.085820         1.382436
 H        -0.032225         3.111837        -0.378397
