19
Iteration:  3044
 O         0.068670         0.029074         0.952622
 C        -0.586297         1.237220         0.833671
 C        -1.988828         1.294212         0.349026
 C        -1.768168         1.803904         1.713505
 C        -1.139785         3.168742         1.584150
 O        -0.565181         3.674719         2.728934
 C         0.831720         3.306475         2.710898
 C         1.218917         3.016911         1.282389
 C         0.039327         2.605068         0.598501
 H         0.118449        -0.019571         1.949966
 H        -2.301606         1.926034        -0.393637
 H        -2.655335         0.371686         0.332183
 H        -2.284264         1.319560         2.602632
 H        -1.695905         3.929835         1.189757
 H         1.333513         4.056139         3.288362
 H         0.906551         2.415649         3.355039
 H         1.648539         3.827245         0.773751
 H         2.050852         2.273349         1.322397
 H        -0.205821         2.907467        -0.387192
