19
Iteration:  2125
 O         0.097040         0.038715         1.053997
 C        -0.555474         1.226306         0.824803
 C        -2.014218         1.257269         0.370150
 C        -1.775558         1.744079         1.791360
 C        -1.206847         3.160447         1.578847
 O        -0.504128         3.829377         2.637913
 C         0.747643         3.218982         2.753999
 C         1.250657         2.956147         1.263413
 C        -0.012728         2.662352         0.606803
 H         0.831484        -0.036431         0.478418
 H        -2.261119         2.071603        -0.329562
 H        -2.641605         0.349839         0.263980
 H        -2.166054         1.373541         2.713881
 H        -2.028937         3.898771         1.304472
 H         1.511671         3.891754         3.115605
 H         0.759974         2.270419         3.338659
 H         1.737834         3.931572         0.856979
 H         1.920540         2.121383         1.177573
 H        -0.101902         2.993019        -0.448092
