19
Iteration:  2560charge 0 multiplicity 1
 O         0.102137         0.098631         1.049221
 C        -0.611446         1.287487         0.823554
 C        -2.099517         1.188614         0.420045
 C        -1.633040         1.794948         1.782724
 C        -1.181969         3.135638         1.533600
 O        -0.471228         3.818720         2.597140
 C         0.764377         3.205220         2.798423
 C         1.223990         2.904210         1.318270
 C        -0.086660         2.701603         0.510814
 H         0.867779         0.031344         0.486922
 H        -2.463032         1.841154        -0.291101
 H        -2.478004         0.162998         0.515456
 H        -1.881542         1.371359         2.691160
 H        -2.069020         3.739696         1.146563
 H         1.493834         4.010753         3.374681
 H         0.560488         2.158110         3.394109
 H         2.019091         3.649660         1.030157
 H         1.829258         2.019902         1.356033
 H        -0.232067         3.192242        -0.485858
