19
Iteration:  2540
 O         0.086882         0.034782         1.109172
 C        -0.596558         1.234048         0.786997
 C        -2.070448         1.177243         0.364889
 C        -1.706866         1.711916         1.746976
 C        -1.187002         3.284802         1.604795
 O        -0.487463         3.870664         2.672358
 C         0.813297         3.172033         2.723087
 C         1.251543         2.984891         1.234226
 C        -0.070014         2.657619         0.632865
 H         0.673326        -0.102880         0.371617
 H        -2.375741         1.839763        -0.434575
 H        -2.531395         0.110966         0.302854
 H        -2.161029         1.273932         2.612722
 H        -1.843482         4.031734         1.203971
 H         1.424288         3.897984         3.394220
 H         0.608348         2.161306         3.218054
 H         1.561095         3.959955         0.793106
 H         2.087363         2.293895         1.184583
 H         0.010159         2.841957        -0.458727
