19
Iteration:   316
 O         0.216280         0.106858         0.957206
 C        -0.630188         1.252470         0.886489
 C        -2.038557         1.222403         0.460571
 C        -1.675708         1.830147         1.911403
 C        -1.150521         3.200742         1.425298
 O        -0.553500         3.997499         2.500625
 C         0.759704         3.117408         2.817240
 C         1.219592         2.808882         1.388217
 C        -0.047498         2.567888         0.570506
 H        -0.017276        -0.292632         0.048962
 H        -2.345405         1.973764        -0.179104
 H        -2.472539         0.178366         0.399039
 H        -2.345243         1.316063         2.792243
 H        -1.920828         3.875508         1.009345
 H         1.299136         3.910897         3.448975
 H         0.520913         2.285084         3.438322
 H         1.683659         3.682450         1.041655
 H         1.841736         1.958843         1.437781
 H         0.168783         2.915551        -0.471190
