19
Iteration:  4716
 O         0.059613        -0.022445         0.963375
 C        -0.576495         1.189677         0.850825
 C        -2.001174         1.327585         0.279156
 C        -1.749914         1.729141         1.728294
 C        -1.220529         3.187328         1.492666
 O        -0.523170         3.795071         2.708287
 C         0.773108         3.173827         2.767777
 C         1.295266         3.061033         1.400016
 C        -0.050315         2.658414         0.621857
 H         0.992205         0.338542         1.157642
 H        -2.199580         2.001367        -0.549772
 H        -2.421424         0.257864         0.439735
 H        -2.157921         1.353352         2.619176
 H        -1.949407         3.971048         1.204505
 H         1.283962         3.991008         3.443448
 H         0.796586         2.165576         3.240136
 H         1.845964         4.006047         0.970675
 H         1.956476         2.117660         1.247461
 H        -0.123218         2.969790        -0.398369
