19
Iteration:  2860
 O         0.055516        -0.071564         0.800549
 C        -0.648396         1.185717         0.811277
 C        -2.087359         1.170593         0.350069
 C        -1.765931         1.754642         1.753655
 C        -1.219895         3.215895         1.544392
 O        -0.509090         3.902046         2.652934
 C         0.840817         3.326621         2.868275
 C         1.313090         2.976129         1.447336
 C        -0.011247         2.664347         0.611480
 H         0.871341        -0.308346         1.200434
 H        -2.342690         1.572345        -0.538114
 H        -2.505220         0.106369         0.464182
 H        -2.041614         1.299941         2.743625
 H        -1.882265         4.016737         1.116349
 H         1.362439         4.166319         3.240931
 H         1.038723         2.522186         3.588719
 H         1.648692         3.894929         1.096937
 H         2.236867         2.386053         1.411138
 H         0.061220         2.991310        -0.416390
