19
Iteration:  1308
 O         0.189534         0.207647         1.085120
 C        -0.672294         1.233687         0.876721
 C        -2.021485         1.100662         0.402967
 C        -1.773230         1.895437         1.713501
 C        -1.121471         3.235087         1.470235
 O        -0.475892         3.729162         2.636347
 C         0.812546         3.116280         2.788393
 C         1.205993         3.007175         1.357850
 C        -0.088318         2.651760         0.541920
 H        -0.200621        -0.388007         0.396256
 H        -2.448277         1.530547        -0.474252
 H        -2.487457         0.179382         0.630573
 H        -2.136188         1.558679         2.630146
 H        -1.794498         4.000485         1.010831
 H         1.481561         3.657539         3.491928
 H         0.858992         2.029954         3.178288
 H         1.584991         3.994906         0.929111
 H         1.830204         2.116570         1.170804
 H         0.049909         2.921766        -0.510619
