19
Iteration:  3830charge 0 multiplicity 1
 O         0.103625         0.101294         0.900451
 C        -0.603240         1.247459         0.862664
 C        -2.047454         1.193357         0.381473
 C        -1.711003         1.767611         1.755183
 C        -1.143391         3.215228         1.582936
 O        -0.551907         3.782466         2.689192
 C         0.688774         3.163430         2.799896
 C         1.275514         2.897087         1.275008
 C        -0.029756         2.676485         0.556544
 H         0.928065         0.287974         1.291228
 H        -2.256853         2.008860        -0.516910
 H        -2.320136         0.151644         0.395996
 H        -2.176767         1.753865         2.805063
 H        -1.803639         4.053499         1.197461
 H         1.432248         3.870639         3.333945
 H         0.789582         2.251132         3.417597
 H         1.756868         3.880879         1.076044
 H         2.047266         2.115447         1.240737
 H        -0.132812         3.016464        -0.435837
