19
Iteration:   496charge 0 multiplicity 1
 O         0.149579         0.119865         1.089985
 C        -0.614491         1.264347         0.906884
 C        -2.051700         1.217920         0.298513
 C        -1.722388         1.745734         1.783263
 C        -1.205970         3.283894         1.532863
 O        -0.386934         3.921829         2.549742
 C         0.770578         3.053429         2.789675
 C         1.155579         2.890131         1.329689
 C        -0.103276         2.601237         0.626328
 H         0.803434         0.116853         0.444444
 H        -2.355468         1.583219        -0.660929
 H        -2.600170         0.175790         0.560154
 H        -2.105489         1.379447         2.631185
 H        -1.860782         4.046257         1.097291
 H         1.386685         3.799570         3.185411
 H         0.571844         2.167178         3.421533
 H         1.444173         3.931537         1.068468
 H         2.092839         2.294177         1.210078
 H        -0.064902         2.628271        -0.584944
