19
Iteration:   771
 O         0.092571         0.017365         1.071722
 C        -0.661628         1.137084         0.921548
 C        -2.029768         1.240224         0.346138
 C        -1.747742         1.965271         1.684918
 C        -1.107040         3.199686         1.477288
 O        -0.536159         3.637269         2.678386
 C         0.930727         3.364616         2.747141
 C         1.242548         3.016832         1.332961
 C        -0.076568         2.575244         0.651595
 H        -0.145928        -0.549718         0.384226
 H        -2.337347         1.881036        -0.576001
 H        -2.533228         0.264668         0.376396
 H        -2.278626         1.661372         2.604826
 H        -1.862275         3.986428         1.101807
 H         1.413475         4.302303         3.024432
 H         1.084303         2.465213         3.410538
 H         1.328984         3.990002         0.710220
 H         1.998770         2.288398         1.220435
 H         0.078327         2.706465        -0.377651
