19
Iteration:  4445
 O         0.159680         0.044550         0.943813
 C        -0.663725         1.248675         0.778877
 C        -2.066498         1.177234         0.398294
 C        -1.699540         1.842392         1.681701
 C        -1.125507         3.299286         1.572760
 O        -0.576209         3.763806         2.707140
 C         0.788300         3.095032         2.749423
 C         1.219868         3.018701         1.394547
 C        -0.022904         2.630027         0.553926
 H         0.904938         0.326298         1.440557
 H        -2.574681         1.595810        -0.415300
 H        -2.258575         0.157027         0.535648
 H        -2.101996         1.425388         2.548839
 H        -1.738215         4.056640         1.041425
 H         1.219185         3.774928         3.396577
 H         0.532669         2.136172         3.251316
 H         1.604757         4.097262         1.225868
 H         2.101102         2.249067         1.323352
 H         0.064031         2.973075        -0.513106
