19
Iteration:  4179charge 0 multiplicity 1
 O         0.113838         0.025715         0.912313
 C        -0.612257         1.174501         0.718369
 C        -2.078536         1.210577         0.355324
 C        -1.672986         1.848502         1.742959
 C        -1.138748         3.259593         1.567090
 O        -0.589185         3.748448         2.723469
 C         0.780684         3.184010         2.795124
 C         1.273078         3.030522         1.369505
 C        -0.041075         2.657063         0.615379
 H         0.472187         0.023156         1.778512
 H        -2.466062         1.735279        -0.422004
 H        -2.455132         0.140964         0.602763
 H        -2.102781         1.367365         2.531971
 H        -1.926691         3.868529         1.044430
 H         1.582487         3.851580         3.258266
 H         0.831061         2.278806         3.337380
 H         1.737054         4.104425         1.038459
 H         2.091603         2.339999         1.023429
 H        -0.032107         2.987759        -0.525004
