19
Iteration:  2730
 O         0.151087         0.119138         1.020795
 C        -0.708519         1.210109         0.875058
 C        -2.110445         1.214067         0.345843
 C        -1.703211         1.876013         1.707486
 C        -1.174780         3.197951         1.489103
 O        -0.539531         3.701548         2.698463
 C         0.811158         3.173546         2.757048
 C         1.272232         2.997898         1.330836
 C        -0.027116         2.602571         0.596191
 H         1.033601         0.519967         1.267157
 H        -2.125428         1.914222        -0.528983
 H        -2.779731         0.302463         0.326730
 H        -2.112704         1.582726         2.643043
 H        -1.813836         3.942755         1.172321
 H         1.487820         3.700603         3.342874
 H         0.824159         2.095044         3.237012
 H         1.499877         3.954179         0.844551
 H         2.090782         2.270941         1.263918
 H         0.045072         2.780062        -0.484438
