19
Iteration:  3108
 O         0.123750         0.045410         0.879221
 C        -0.646852         1.246631         0.864254
 C        -2.070674         1.146575         0.377351
 C        -1.711347         1.774861         1.738997
 C        -1.176934         3.284290         1.545474
 O        -0.568723         3.842856         2.648674
 C         0.770607         3.206926         2.837040
 C         1.263227         2.884553         1.360119
 C         0.001772         2.691959         0.542200
 H         0.997640         0.303533         1.191076
 H        -2.429215         1.849324        -0.318373
 H        -2.642792         0.160508         0.578809
 H        -1.903275         1.408643         2.769115
 H        -1.930306         3.986690         1.225572
 H         1.474719         3.858339         3.350999
 H         0.680986         2.214238         3.397450
 H         1.862597         3.662928         0.982509
 H         1.919882         1.988628         1.456144
 H         0.176821         2.990693        -0.464246
