19
Iteration:  3849
 O         0.174356         0.116286         0.914070
 C        -0.647738         1.256286         0.786413
 C        -2.026368         1.179428         0.424420
 C        -1.782752         1.888986         1.724017
 C        -1.216946         3.277544         1.460659
 O        -0.505971         3.734574         2.722033
 C         0.804578         3.137171         2.790474
 C         1.234539         2.936248         1.388572
 C        -0.087993         2.635165         0.577630
 H         1.032173         0.346971         1.181954
 H        -2.465895         1.650261        -0.379864
 H        -2.460945         0.205851         0.803318
 H        -2.104351         1.208444         2.616339
 H        -1.874230         4.053240         1.048137
 H         1.422420         3.758074         3.414323
 H         0.796417         2.136933         3.202278
 H         1.839006         3.814259         1.073426
 H         1.858764         2.092170         1.267362
 H         0.181286         2.856983        -0.426338
