19
Iteration:   171
 O         0.222357         0.197890         1.115678
 C        -0.643269         1.257016         0.789074
 C        -2.057750         1.152595         0.431557
 C        -1.731868         1.918712         1.724951
 C        -1.197007         3.270394         1.403624
 O        -0.504303         3.716100         2.663593
 C         0.771025         3.073057         2.765374
 C         1.231696         2.972046         1.319421
 C        -0.020101         2.608879         0.558825
 H        -0.303654        -0.545539         1.493505
 H        -2.487006         1.745241        -0.408545
 H        -2.470127         0.170652         0.534393
 H        -2.178698         1.657560         2.623582
 H        -1.833445         4.120447         1.066280
 H         1.379294         3.706296         3.408598
 H         0.621759         2.093353         3.218560
 H         1.654023         3.803672         0.780654
 H         2.067306         2.267578         1.268597
 H         0.088232         2.794498        -0.558322
