19
Iteration:  2171
 O         0.201170         0.173480         1.064357
 C        -0.617487         1.250404         0.823584
 C        -2.159567         1.145343         0.450641
 C        -1.777470         1.845774         1.684913
 C        -1.151099         3.222768         1.483009
 O        -0.505932         3.769546         2.641144
 C         0.814733         3.111718         2.832870
 C         1.290090         2.929557         1.330042
 C        -0.081471         2.671361         0.552789
 H         0.784283         0.115474         0.295377
 H        -2.753010         1.608511        -0.391790
 H        -2.406009         0.176954         0.684768
 H        -2.223112         1.365669         2.634497
 H        -1.876926         3.931687         0.948488
 H         1.444381         3.875169         3.463600
 H         0.668254         2.158720         3.390748
 H         1.665675         3.884154         0.911877
 H         2.046599         2.136509         1.209373
 H        -0.033247         3.002946        -0.515078
