19
Iteration:  1007charge 0 multiplicity 1
 O         0.078825         0.024462         1.145979
 C        -0.669272         1.217247         0.800211
 C        -2.059419         1.252892         0.336818
 C        -1.775552         1.762009         1.707650
 C        -1.177960         3.218108         1.547614
 O        -0.537378         3.688907         2.710438
 C         0.864173         3.346652         2.672883
 C         1.320638         2.971581         1.310735
 C        -0.012587         2.679260         0.626929
 H         0.143247        -0.492139         0.308847
 H        -2.284339         1.941395        -0.464245
 H        -2.478969         0.267600         0.199284
 H        -2.023255         1.492418         2.746653
 H        -1.953158         3.845422         1.198712
 H         1.361872         4.302094         3.007540
 H         1.154924         2.515250         3.419344
 H         1.799329         3.798559         0.801375
 H         1.958191         1.998803         1.289668
 H         0.027157         3.004675        -0.423772
