19
Iteration:  3435charge 0 multiplicity 1
 O         0.066129         0.063064         0.851702
 C        -0.690962         1.212256         0.800468
 C        -2.051245         1.210060         0.344636
 C        -1.737105         1.676552         1.752804
 C        -1.186288         3.203092         1.510531
 O        -0.510570         3.836194         2.705160
 C         0.817216         3.293085         2.803126
 C         1.299014         3.001831         1.381081
 C         0.022958         2.603280         0.602028
 H         0.562846        -0.089121         1.710571
 H        -2.186986         2.017853        -0.346583
 H        -2.472678         0.146418         0.320695
 H        -2.169931         1.428575         2.819144
 H        -1.926563         3.904172         1.373716
 H         1.323289         3.950936         3.471167
 H         0.700930         2.349722         3.393368
 H         1.632610         3.910769         0.908360
 H         1.992853         2.079031         1.366590
 H         0.220443         2.975368        -0.464582
