19
Iteration:   344charge 0 multiplicity 1
 O         0.215859         0.026113         0.929346
 C        -0.631491         1.217251         0.773783
 C        -2.153850         1.063161         0.519884
 C        -1.675861         1.902099         1.761521
 C        -1.132776         3.282245         1.425546
 O        -0.559481         3.930189         2.619151
 C         0.725419         3.215967         2.814255
 C         1.325123         2.858518         1.388902
 C         0.020095         2.655226         0.600045
 H        -0.351855        -0.558030         0.409665
 H        -2.752881         1.610517        -0.263462
 H        -2.587746         0.105144         0.894907
 H        -2.149465         1.612694         2.585754
 H        -1.783411         4.068782         1.014321
 H         1.202964         3.851354         3.489494
 H         0.555889         2.258792         3.434011
 H         1.781033         3.821218         0.901912
 H         1.972234         1.928175         1.520395
 H         0.153143         3.137397        -0.365406
