19
Iteration:  4922charge 0 multiplicity 1
 O         0.114925         0.038858         0.890734
 C        -0.583079         1.313938         0.776106
 C        -2.019525         1.204554         0.336173
 C        -1.728103         1.791749         1.691771
 C        -1.201037         3.193664         1.609471
 O        -0.534440         3.795194         2.644763
 C         0.753018         3.187243         2.771452
 C         1.289900         2.887468         1.416998
 C        -0.046179         2.701876         0.637572
 H         0.483878        -0.016551         1.837657
 H        -2.299593         1.912577        -0.501017
 H        -2.341945         0.246991         0.429123
 H        -1.915101         1.329959         2.551457
 H        -2.020343         3.881585         1.299394
 H         1.316554         4.058783         3.343185
 H         0.609518         2.365515         3.496039
 H         1.753574         3.757678         0.868685
 H         2.006267         1.964084         1.441564
 H        -0.209244         3.250852        -0.409174
