19
Iteration:  1057
 O         0.250675         0.221508         1.040215
 C        -0.651507         1.277368         0.844297
 C        -2.023451         1.077785         0.466223
 C        -1.811504         1.853776         1.740016
 C        -1.156217         3.275462         1.491817
 O        -0.451381         3.851740         2.599657
 C         0.750504         2.971704         2.799094
 C         1.274953         2.947213         1.325548
 C        -0.062949         2.666513         0.548905
 H        -0.360792        -0.575026         0.931562
 H        -2.564186         1.641815        -0.415258
 H        -2.538918         0.197729         0.721395
 H        -2.574959         1.558088         2.528878
 H        -1.856687         4.035602         0.972190
 H         1.303917         3.478199         3.582633
 H         0.651359         1.941976         3.122660
 H         1.752269         3.893364         0.899053
 H         2.031769         2.202162         1.120813
 H        -0.203648         3.091067        -0.482078
