19
Iteration:   838
 O         0.220869         0.144327         1.009213
 C        -0.619765         1.248827         0.823832
 C        -2.094879         1.155487         0.423649
 C        -1.728689         1.838049         1.752914
 C        -1.150918         3.273180         1.487892
 O        -0.476100         3.918001         2.642427
 C         0.795456         3.092934         2.778503
 C         1.192006         2.883332         1.341494
 C        -0.051410         2.595919         0.545305
 H        -0.203270        -0.754674         0.868829
 H        -2.507963         1.651479        -0.481200
 H        -2.522948         0.077998         0.710854
 H        -2.155956         1.743949         2.663336
 H        -1.885031         4.098218         1.264509
 H         1.473013         3.697070         3.355663
 H         0.493621         2.091435         3.315813
 H         1.616137         3.925638         1.033904
 H         1.849665         2.017995         1.279188
 H         0.086552         2.875818        -0.473331
