19
Iteration:  2957charge 0 multiplicity 1
 O         0.264610         0.088220         0.927793
 C        -0.682351         1.276089         0.783180
 C        -2.111932         1.222732         0.450331
 C        -1.770280         1.857195         1.749472
 C        -1.171107         3.283711         1.481389
 O        -0.509753         3.775833         2.670950
 C         0.722079         3.197301         2.820569
 C         1.243397         2.837164         1.372794
 C        -0.041021         2.610337         0.539713
 H         1.073674         0.554601         1.165560
 H        -2.552103         1.610723        -0.356340
 H        -2.322553         0.092323         0.605373
 H        -2.203459         1.471968         2.733696
 H        -1.935206         4.021405         1.055023
 H         1.411627         3.736916         3.434858
 H         0.655890         2.213230         3.247040
 H         1.843663         3.637823         1.027180
 H         1.955624         1.956573         1.416189
 H        -0.020109         2.931575        -0.473980
