19
Iteration:  2978
 O         0.130920         0.082036         0.921808
 C        -0.622071         1.275739         0.894957
 C        -1.990404         1.154089         0.431675
 C        -1.709292         1.875935         1.765931
 C        -1.192735         3.290930         1.488748
 O        -0.579514         3.731810         2.663496
 C         0.772448         3.107950         2.798957
 C         1.224989         2.963278         1.327240
 C        -0.024643         2.616421         0.552123
 H         1.035543         0.210241         1.230751
 H        -2.296749         1.822724        -0.256419
 H        -2.779582         0.335886         0.381780
 H        -2.358180         1.576911         2.656223
 H        -1.756690         4.014296         0.929450
 H         1.447349         3.814630         3.251372
 H         0.851319         2.226616         3.419226
 H         1.691811         3.847642         0.986997
 H         2.014403         2.173089         1.151162
 H         0.075795         3.004299        -0.423605
