19
Iteration:   328
 O         0.168296         0.116237         0.897475
 C        -0.615619         1.216583         0.885283
 C        -2.016441         1.178407         0.527939
 C        -1.676354         1.883146         1.779659
 C        -1.133478         3.276955         1.473839
 O        -0.498184         3.901190         2.523351
 C         0.679277         3.184876         2.844214
 C         1.179785         2.855844         1.466903
 C        -0.038912         2.558689         0.530295
 H        -0.008736        -0.523752         0.251104
 H        -2.375791         1.588840        -0.398521
 H        -2.465368         0.190248         0.659782
 H        -1.937834         1.543697         2.907690
 H        -1.881693         3.939922         1.013509
 H         1.487846         3.885845         3.277131
 H         0.565572         2.320702         3.472903
 H         1.691428         3.665067         1.048572
 H         1.855303         2.038452         1.342605
 H         0.063725         2.692994        -0.598178
