19
Iteration:  2561
 O         0.104500         0.099704         1.047388
 C        -0.605571         1.293803         0.822238
 C        -2.108576         1.189765         0.426332
 C        -1.622850         1.795921         1.776901
 C        -1.186133         3.146735         1.535028
 O        -0.471587         3.811507         2.591539
 C         0.758066         3.207408         2.803514
 C         1.227214         2.893661         1.312465
 C        -0.087728         2.699992         0.518638
 H         0.882574         0.052507         0.452595
 H        -2.468035         1.845659        -0.306091
 H        -2.504325         0.112846         0.511200
 H        -1.875365         1.381669         2.722730
 H        -2.040291         3.748195         1.161290
 H         1.458796         4.024705         3.388961
 H         0.554388         2.172498         3.415095
 H         2.003328         3.644224         1.015181
 H         1.841451         2.018595         1.378523
 H        -0.221902         3.159822        -0.494940
