19
Iteration:  1714
 O         0.167974         0.015883         0.928057
 C        -0.578495         1.194868         0.837276
 C        -2.016792         1.321151         0.436018
 C        -1.678128         1.789160         1.804371
 C        -1.160811         3.193100         1.471833
 O        -0.547114         3.806472         2.583292
 C         0.756618         3.336401         2.816078
 C         1.222161         2.936068         1.376543
 C        -0.037289         2.590653         0.666207
 H        -0.364635        -0.594282         0.298817
 H        -2.569463         1.856152        -0.354778
 H        -2.499638         0.309030         0.247654
 H        -2.156574         1.448607         2.753863
 H        -1.983053         3.814235         1.187553
 H         1.218092         4.167819         3.323683
 H         0.857424         2.349677         3.302759
 H         1.811873         3.657079         0.939074
 H         1.894297         2.050633         1.395186
 H         0.030666         2.914075        -0.364816
