19
Iteration:   737
 O         0.001638         0.043325         1.127208
 C        -0.670862         1.246911         0.832701
 C        -2.103889         1.121452         0.319855
 C        -1.715734         1.817324         1.715890
 C        -1.170315         3.160626         1.560624
 O        -0.532606         3.802557         2.640084
 C         0.879385         3.324583         2.740035
 C         1.371985         2.970204         1.294220
 C        -0.016219         2.679423         0.605170
 H         0.428012        -0.415808         0.392564
 H        -2.532360         1.754443        -0.544982
 H        -2.458025         0.152680         0.350873
 H        -1.986888         1.290201         2.738100
 H        -1.882749         4.005695         1.257105
 H         1.460430         3.917971         3.413933
 H         0.876847         2.337039         3.324722
 H         1.970114         3.864076         0.952832
 H         2.104365         2.194374         1.215325
 H        -0.130135         2.985993        -0.384698
