19
Iteration:  3302charge 0 multiplicity 1
 O         0.168011         0.064505         0.916710
 C        -0.572093         1.286616         0.863581
 C        -2.085202         1.253497         0.333395
 C        -1.654254         1.774081         1.779251
 C        -1.215086         3.251676         1.596681
 O        -0.490196         3.796489         2.578815
 C         0.675897         3.100324         2.825909
 C         1.256029         2.961488         1.308150
 C        -0.045049         2.635336         0.592323
 H         0.521521        -0.035406         1.854399
 H        -2.598899         1.738147        -0.558439
 H        -2.507280         0.315040         0.540005
 H        -2.091900         1.457559         2.654125
 H        -1.926019         3.892927         1.156589
 H         1.340872         3.658601         3.503743
 H         0.519751         2.066742         3.365392
 H         1.588157         4.008731         1.066752
 H         2.182437         2.353387         1.150569
 H         0.058197         3.076291        -0.453680
