19
Iteration:  4357
 O         0.076495         0.018218         0.835447
 C        -0.600685         1.248838         0.746196
 C        -2.013581         1.177056         0.441296
 C        -1.729338         1.820346         1.711796
 C        -1.144927         3.183333         1.497756
 O        -0.575626         3.740723         2.717717
 C         0.744361         3.319947         2.834944
 C         1.272834         2.951175         1.462659
 C        -0.033944         2.665657         0.564755
 H         0.807958         0.115828         1.427776
 H        -2.453366         1.781739        -0.344819
 H        -2.353958         0.249523         0.419075
 H        -2.013194         1.514840         2.780594
 H        -1.749517         4.044740         1.104965
 H         1.410905         3.947539         3.406241
 H         0.874827         2.246529         3.337774
 H         1.765052         3.884172         0.904519
 H         2.001352         2.061496         1.302958
 H         0.003060         3.074217        -0.499225
