19
Iteration:  2792charge 0 multiplicity 1
 O         0.220087         0.122108         0.966571
 C        -0.636983         1.283535         0.808765
 C        -2.084707         1.174196         0.410823
 C        -1.768284         1.822557         1.690473
 C        -1.157120         3.239050         1.540117
 O        -0.526269         3.800480         2.702217
 C         0.800086         3.110144         2.754625
 C         1.261602         2.954430         1.364936
 C        -0.074788         2.603197         0.501680
 H         0.189139         0.083408         1.948844
 H        -2.436870         1.712683        -0.452644
 H        -2.460799         0.272187         0.533425
 H        -2.147552         1.482017         2.642701
 H        -1.891001         4.017387         1.074761
 H         1.483913         3.693160         3.428309
 H         0.647700         2.179668         3.275337
 H         1.720835         3.839237         0.942180
 H         2.106022         2.245337         1.379046
 H        -0.135048         2.933804        -0.527422
