19
Iteration:  1943charge 0 multiplicity 1
 O         0.097137         0.040012         1.053097
 C        -0.667977         1.164301         0.857126
 C        -2.085675         1.300751         0.339579
 C        -1.654017         1.746096         1.793491
 C        -1.190775         3.171440         1.578536
 O        -0.506803         3.869677         2.636494
 C         0.762389         3.220111         2.750457
 C         1.282576         3.013571         1.365491
 C         0.019508         2.589633         0.547472
 H         0.368979        -0.312155         0.149906
 H        -2.369053         1.955016        -0.467602
 H        -2.693554         0.371352         0.362007
 H        -2.137259         1.222457         2.545029
 H        -2.000695         3.789921         1.281552
 H         1.447749         3.896898         3.216340
 H         0.739385         2.202350         3.113913
 H         1.519930         3.997517         0.942800
 H         2.193770         2.377381         1.327287
 H         0.145620         2.938919        -0.472230
