19
Iteration:  4438charge 0 multiplicity 1
 O         0.159044         0.051757         0.927043
 C        -0.573985         1.207349         0.764335
 C        -2.033666         1.184298         0.391987
 C        -1.713592         1.864667         1.744122
 C        -1.132750         3.282439         1.546848
 O        -0.548163         3.790248         2.712864
 C         0.708353         3.088709         2.811712
 C         1.196440         3.030932         1.370649
 C        -0.038242         2.627739         0.546869
 H         0.834958         0.362649         1.521350
 H        -2.449576         1.755568        -0.476086
 H        -2.468184         0.075360         0.410754
 H        -2.211228         1.504957         2.655775
 H        -1.689692         4.066587         1.080812
 H         1.395627         3.747863         3.394356
 H         0.653730         1.989320         3.223518
 H         1.583254         3.897023         0.964467
 H         1.949352         2.226954         1.176736
 H        -0.072313         2.931713        -0.501151
