19
Iteration:  2272charge 0 multiplicity 1
 O         0.198737         0.085831         0.943467
 C        -0.608402         1.186578         0.834745
 C        -2.087343         1.213603         0.418416
 C        -1.708652         1.816522         1.740500
 C        -1.179632         3.252600         1.496917
 O        -0.575993         3.694183         2.708326
 C         0.804172         3.371190         2.809361
 C         1.281244         2.943094         1.382904
 C        -0.023652         2.584856         0.533304
 H        -0.431568        -0.527373         0.441825
 H        -2.342511         1.758793        -0.415870
 H        -2.822656         0.329690         0.552095
 H        -1.997171         1.437732         2.667217
 H        -1.814405         4.015223         0.923582
 H         1.338370         4.370723         3.244265
 H         0.828890         2.552257         3.484854
 H         1.913292         3.626808         0.940716
 H         1.880774         1.960695         1.417721
 H         0.007933         3.036668        -0.466716
