19
Iteration:   245charge 0 multiplicity 1
 O         0.065766         0.039189         1.096272
 C        -0.613381         1.167080         0.871630
 C        -2.101742         1.185029         0.367498
 C        -1.785643         1.846196         1.765837
 C        -1.192092         3.212595         1.468999
 O        -0.569884         3.698035         2.683505
 C         0.879212         3.361079         2.744771
 C         1.367230         3.051406         1.365661
 C         0.055114         2.616236         0.513052
 H         0.230259        -0.604691         0.317431
 H        -2.437308         1.852373        -0.531182
 H        -2.592719         0.242283         0.589015
 H        -2.450364         1.711015         2.618134
 H        -1.740242         4.164117         1.113922
 H         1.346919         4.082263         3.367154
 H         0.770301         2.316642         3.204107
 H         1.877054         3.874851         0.678036
 H         1.935265         2.006815         1.368947
 H         0.074978         2.746591        -0.552979
