19
Iteration:  2368charge 0 multiplicity 1
 O         0.050238        -0.000602         0.821432
 C        -0.580198         1.245941         0.804977
 C        -2.080851         1.142258         0.517775
 C        -1.662332         1.757472         1.820658
 C        -1.156430         3.196772         1.509997
 O        -0.506760         3.919355         2.593133
 C         0.689104         3.255562         2.796944
 C         1.249599         2.960374         1.461088
 C         0.023673         2.664486         0.557622
 H         1.032135         0.000541         0.559649
 H        -2.496868         1.830085        -0.183311
 H        -2.596494         0.117446         0.497365
 H        -2.077985         1.422458         2.731057
 H        -1.863917         3.870732         0.994637
 H         1.289860         3.814149         3.367681
 H         0.565247         2.295230         3.544296
 H         1.804719         3.774767         1.030381
 H         2.079870         2.235921         1.489898
 H         0.025049         2.732326        -0.490097
