19
Iteration:   439
 O         0.094724         0.151571         1.090298
 C        -0.615099         1.284392         0.802925
 C        -2.014260         1.091989         0.397512
 C        -1.775960         1.853572         1.716586
 C        -1.142113         3.214959         1.466437
 O        -0.454545         3.746388         2.641472
 C         0.815401         3.220078         2.827706
 C         1.196544         2.937210         1.372720
 C        -0.047691         2.646452         0.504447
 H        -0.226879        -0.690992         0.630548
 H        -2.311071         1.683096        -0.511913
 H        -2.490471         0.208019         0.590537
 H        -1.935156         1.701340         2.810612
 H        -1.839275         3.985934         1.080669
 H         1.448958         3.986754         3.381203
 H         0.855488         2.350295         3.475135
 H         1.453322         3.835739         0.921069
 H         2.008307         2.190787         1.276380
 H         0.046829         2.865477        -0.611009
