19
Iteration:  3202
 O         0.114838         0.049352         0.880635
 C        -0.650093         1.233486         0.767160
 C        -2.047895         1.220726         0.299154
 C        -1.741241         1.807569         1.781699
 C        -1.127956         3.152353         1.580121
 O        -0.545691         3.789692         2.677602
 C         0.801253         3.412991         2.797823
 C         1.213813         2.868198         1.421312
 C        -0.045640         2.576286         0.634440
 H         1.028672         0.348091         1.161308
 H        -2.529232         1.956407        -0.313245
 H        -2.353761         0.104301         0.124015
 H        -2.188222         1.438172         2.733864
 H        -1.846298         3.922953         1.164813
 H         1.462991         4.158603         3.320967
 H         0.959371         2.450559         3.346346
 H         1.912361         3.554379         0.814683
 H         1.763014         1.920271         1.596861
 H         0.102438         2.924307        -0.456107
