19
Iteration:  4207
 O         0.085634         0.089808         0.890928
 C        -0.639778         1.234913         0.876498
 C        -1.991232         1.191998         0.325492
 C        -1.685424         1.814593         1.811356
 C        -1.213752         3.250101         1.550622
 O        -0.519543         3.747897         2.618186
 C         0.771345         3.140976         2.803580
 C         1.261567         3.030892         1.375199
 C        -0.061450         2.684009         0.610665
 H         0.916898         0.219401         1.378183
 H        -2.298488         1.770156        -0.687706
 H        -2.509204         0.249113         0.431787
 H        -2.115958         1.219854         2.757217
 H        -2.015278         3.844134         1.166029
 H         1.415005         3.759450         3.353624
 H         0.717427         2.047480         3.233246
 H         1.779417         3.847169         1.048590
 H         1.852660         2.161059         1.159245
 H         0.152204         2.777390        -0.421374
