19
Iteration:   763
 O         0.053760        -0.011668         1.075899
 C        -0.628347         1.212363         0.877371
 C        -2.052627         1.186469         0.346725
 C        -1.765554         1.879874         1.696487
 C        -1.150851         3.241191         1.442172
 O        -0.511802         3.678702         2.738095
 C         0.936988         3.394840         2.718292
 C         1.203854         3.008739         1.355344
 C        -0.024752         2.560257         0.624759
 H         0.045857        -0.581388         0.323115
 H        -2.426914         1.700167        -0.539535
 H        -2.630804         0.177091         0.556561
 H        -2.382930         1.631712         2.431796
 H        -1.566073         4.133474         1.038455
 H         1.577797         4.111485         3.195340
 H         1.114689         2.547842         3.354449
 H         1.576352         3.979839         0.908273
 H         2.117891         2.388739         1.279290
 H        -0.070847         2.891815        -0.485766
