19
Iteration:   125charge 0 multiplicity 1
 O         0.274375         0.155720         0.975236
 C        -0.594379         1.206365         0.809456
 C        -2.041868         1.133131         0.482326
 C        -1.753733         1.860598         1.735265
 C        -1.256711         3.263473         1.511110
 O        -0.465026         3.988522         2.593709
 C         0.721611         3.089786         2.734653
 C         1.251313         2.835016         1.431444
 C        -0.061434         2.635348         0.550471
 H        -0.266355        -0.605182         0.944796
 H        -2.376003         1.614124        -0.460812
 H        -2.542994         0.110097         0.833434
 H        -2.371291         1.595239         2.700579
 H        -2.085114         3.947837         1.080754
 H         1.295889         3.570847         3.478618
 H         0.268285         2.131100         3.125015
 H         2.149643         3.543065         1.088370
 H         2.023022         1.963630         1.375993
 H         0.041189         3.016688        -0.521678
