19
Iteration:  4436
 O         0.159458         0.057203         0.922776
 C        -0.559047         1.204410         0.766163
 C        -2.029832         1.182950         0.381984
 C        -1.722215         1.864823         1.760928
 C        -1.143762         3.266215         1.524617
 O        -0.535088         3.795255         2.716384
 C         0.692395         3.098321         2.835207
 C         1.189372         3.026565         1.356194
 C        -0.041551         2.633769         0.553658
 H         0.829407         0.320596         1.539974
 H        -2.347103         1.745632        -0.395362
 H        -2.508807         0.152246         0.410320
 H        -2.194776         1.551000         2.632420
 H        -1.720515         4.068412         1.111583
 H         1.398513         3.639936         3.371970
 H         0.675658         1.987376         3.247539
 H         1.597860         3.892924         0.879941
 H         1.990092         2.194787         1.150789
 H        -0.084442         2.947360        -0.513335
