19
Iteration:   353
 O         0.175133         0.038097         0.937034
 C        -0.667906         1.197952         0.751479
 C        -2.152470         1.091353         0.545598
 C        -1.729900         1.844494         1.739717
 C        -1.080611         3.294669         1.461539
 O        -0.612633         3.935664         2.614087
 C         0.771189         3.205535         2.811497
 C         1.367500         2.930877         1.473521
 C         0.030429         2.692137         0.560716
 H        -0.173666        -0.810670         0.642178
 H        -2.839881         1.488677        -0.316803
 H        -2.464494         0.110330         0.729609
 H        -2.114246         1.546172         2.661473
 H        -1.832429         3.858867         0.914714
 H         1.425169         3.844492         3.383372
 H         0.668949         2.158797         3.218917
 H         2.064717         3.607341         0.901978
 H         1.957767         1.979777         1.267146
 H         0.104491         3.029757        -0.539187
