19
Iteration:   292charge 0 multiplicity 1
 O         0.171341         0.041208         1.048919
 C        -0.632911         1.188798         0.784725
 C        -2.127364         1.239420         0.432612
 C        -1.689428         1.812281         1.765050
 C        -1.144959         3.189364         1.546928
 O        -0.479189         3.956293         2.550238
 C         0.706155         3.239256         2.737582
 C         1.285169         2.901635         1.418018
 C        -0.054826         2.584293         0.574257
 H         0.448976        -0.251377         0.203957
 H        -2.383632         1.859269        -0.392148
 H        -2.622712         0.247797         0.581650
 H        -1.897383         1.146423         2.598536
 H        -1.975883         3.891679         1.407243
 H         1.211257         3.930111         3.401122
 H         0.524411         2.290542         3.247407
 H         1.939961         3.652107         0.898986
 H         1.773221         1.939933         1.591167
 H         0.060382         2.945301        -0.425400
