19
Iteration:  2200
 O         0.167110         0.144478         1.089861
 C        -0.530083         1.293647         0.839150
 C        -2.036504         1.188456         0.488255
 C        -1.681888         1.847991         1.717569
 C        -1.182382         3.238588         1.494196
 O        -0.557096         3.771909         2.677174
 C         0.714450         3.091287         2.820322
 C         1.274812         2.925482         1.285609
 C        -0.067627         2.698920         0.455588
 H        -0.018274        -0.549147         0.374026
 H        -2.551546         1.834246        -0.288320
 H        -2.570399         0.250785         0.562625
 H        -1.902751         1.278606         2.597073
 H        -1.965304         3.852719         1.089197
 H         1.343294         3.707605         3.336330
 H         0.524061         1.984841         3.141824
 H         1.704358         3.949929         0.935150
 H         2.010156         2.141235         1.201413
 H         0.033987         2.947495        -0.613084
