19
Iteration:   447charge 0 multiplicity 1
 O         0.113249         0.135568         1.121833
 C        -0.636776         1.234579         0.810282
 C        -2.032486         1.117737         0.443910
 C        -1.696985         1.876527         1.683929
 C        -1.127774         3.287823         1.462029
 O        -0.509998         3.690411         2.644332
 C         0.794181         3.228777         2.798030
 C         1.210877         2.933964         1.345354
 C        -0.046428         2.656603         0.470784
 H        -0.200364        -0.619587         0.506384
 H        -2.545497         1.636828        -0.371484
 H        -2.499773         0.165520         0.517038
 H        -2.002131         1.513966         2.833538
 H        -1.751544         4.191923         1.282903
 H         1.395021         4.011979         3.413376
 H         0.706588         2.296647         3.384488
 H         1.741803         3.859726         1.036143
 H         2.016735         2.216831         1.290286
 H         0.165947         2.944230        -0.513437
