19
Iteration:  2056charge 0 multiplicity 1
 O         0.200932         0.086385         0.900381
 C        -0.640316         1.224862         0.920793
 C        -2.041214         1.159050         0.449094
 C        -1.722317         1.828512         1.744895
 C        -1.203478         3.177609         1.526075
 O        -0.512075         3.871977         2.626936
 C         0.758911         3.197026         2.805931
 C         1.261731         2.940174         1.306998
 C        -0.021890         2.659441         0.625484
 H        -0.352988        -0.534693         0.424436
 H        -2.277204         1.870205        -0.361965
 H        -2.541548         0.148920         0.587544
 H        -2.272576         1.573122         2.691223
 H        -1.731600         3.949362         0.976690
 H         1.225109         3.922197         3.357037
 H         0.704978         2.191187         3.320148
 H         1.854638         3.776842         0.877748
 H         1.885665         1.988534         1.344073
 H         0.045502         3.010542        -0.395169
