19
Iteration:   669
 O         0.199735         0.142461         0.960306
 C        -0.622779         1.302212         0.832501
 C        -2.053399         1.095083         0.530509
 C        -1.816661         1.904965         1.807214
 C        -1.146464         3.259333         1.441512
 O        -0.466746         3.892661         2.542210
 C         0.706400         3.069071         2.840599
 C         1.256087         2.842006         1.403494
 C        -0.028825         2.636455         0.503964
 H        -0.160856        -0.400391         0.175630
 H        -2.627432         1.382806        -0.280032
 H        -2.222228        -0.010432         0.750069
 H        -2.020061         1.783089         2.918954
 H        -1.729326         4.064577         0.921826
 H         1.379567         3.713067         3.498257
 H         0.565955         2.201336         3.509517
 H         1.646334         3.724738         0.996189
 H         2.117106         2.122771         1.399960
 H         0.047070         3.020265        -0.442828
