19
Iteration:  1134charge 0 multiplicity 1
 O         0.186413         0.090201         0.846046
 C        -0.660376         1.201577         0.869770
 C        -2.033155         1.164618         0.379411
 C        -1.788697         1.766345         1.769116
 C        -1.178456         3.182688         1.566506
 O        -0.508399         3.949533         2.646732
 C         0.827761         3.320545         2.843535
 C         1.283067         2.882192         1.384372
 C        -0.055895         2.594810         0.636978
 H        -0.302947        -0.714849         0.799468
 H        -2.317909         1.813492        -0.567296
 H        -2.357591         0.159879         0.417662
 H        -2.354128         1.415901         2.668474
 H        -1.957801         3.831114         1.019556
 H         1.571773         4.035945         3.181488
 H         0.778711         2.371597         3.476525
 H         1.877561         3.705259         0.871338
 H         1.920106         1.990660         1.198620
 H        -0.179323         2.876140        -0.534945
