19
Iteration:   280charge 0 multiplicity 1
 O         0.093156         0.034135         1.078530
 C        -0.668815         1.213094         0.747485
 C        -2.091135         1.163242         0.402769
 C        -1.631576         1.754783         1.773740
 C        -1.167675         3.252015         1.514002
 O        -0.509596         3.914573         2.597324
 C         0.818901         3.283244         2.854025
 C         1.203047         2.883019         1.385376
 C        -0.015026         2.626543         0.519319
 H         0.576536        -0.297069         0.244099
 H        -2.584429         1.793725        -0.367397
 H        -2.586919         0.213575         0.482154
 H        -2.039957         1.446100         2.662630
 H        -1.864070         3.881201         0.933937
 H         1.544345         3.891406         3.328873
 H         0.681242         2.393511         3.513921
 H         1.761898         3.800788         0.939453
 H         1.970630         2.073756         1.379202
 H         0.081308         2.980343        -0.477586
