19
Iteration:  3436charge 0 multiplicity 1
 O         0.068747         0.062664         0.850398
 C        -0.695180         1.215556         0.797738
 C        -2.054998         1.203913         0.353180
 C        -1.744312         1.675393         1.756427
 C        -1.174751         3.197635         1.506009
 O        -0.517138         3.833530         2.705979
 C         0.817857         3.296207         2.807106
 C         1.302545         3.004307         1.379042
 C         0.021604         2.610494         0.598954
 H         0.563263        -0.060601         1.688361
 H        -2.192329         2.004353        -0.336422
 H        -2.458313         0.145488         0.294180
 H        -2.171717         1.452074         2.797325
 H        -1.901503         3.938547         1.373321
 H         1.337936         3.916664         3.476713
 H         0.693262         2.364804         3.424586
 H         1.668936         3.881807         0.893864
 H         1.970003         2.085027         1.362719
 H         0.239792         2.954270        -0.459560
