19
Iteration:   219charge 0 multiplicity 1
 O         0.150313         0.071613         1.140791
 C        -0.645536         1.208399         0.898045
 C        -2.009201         1.269352         0.247748
 C        -1.813074         1.859057         1.709825
 C        -1.143059         3.237712         1.554768
 O        -0.498813         3.730901         2.642567
 C         0.879673         3.262135         2.716425
 C         1.168333         2.975495         1.311836
 C        -0.027719         2.539109         0.644923
 H        -0.219294        -0.794369         0.809092
 H        -2.185181         1.822093        -0.637508
 H        -2.525755         0.270522         0.380523
 H        -2.140062         1.260991         2.683680
 H        -1.581863         4.106199         1.062049
 H         1.511389         4.130851         3.109732
 H         0.835714         2.395954         3.374329
 H         1.278139         3.924789         0.796978
 H         2.082110         2.389600         1.142794
 H        -0.136612         2.902185        -0.440551
