19
Iteration:  1835
 O         0.134188         0.086492         1.043673
 C        -0.588358         1.214661         0.829831
 C        -1.945973         1.175908         0.341634
 C        -1.708245         1.789218         1.774489
 C        -1.168385         3.251023         1.552234
 O        -0.491238         3.895527         2.665821
 C         0.746678         3.084351         2.709024
 C         1.163784         3.025501         1.348899
 C        -0.025731         2.662943         0.605366
 H        -0.273855        -0.616746         0.544162
 H        -2.483512         1.778644        -0.483554
 H        -2.498670         0.069907         0.377006
 H        -2.115621         1.275053         2.626771
 H        -1.874763         4.032929         1.201971
 H         1.506544         3.521370         3.326111
 H         0.445047         2.152255         3.221560
 H         1.577460         3.925236         0.853865
 H         2.030152         2.213049         1.293461
 H        -0.025310         2.967227        -0.436126
