19
Iteration:  4964charge 0 multiplicity 1
 O         0.189549         0.124709         0.850753
 C        -0.642412         1.217485         0.819177
 C        -2.066428         1.193404         0.417350
 C        -1.761513         1.873667         1.741845
 C        -1.173244         3.244106         1.522142
 O        -0.537594         3.787001         2.639231
 C         0.681472         3.097933         2.831475
 C         1.246687         2.910394         1.381293
 C         0.040598         2.646310         0.608553
 H         0.985981         0.259793         1.421564
 H        -2.578309         1.553291        -0.604351
 H        -2.490301         0.247093         0.624628
 H        -2.046494         1.594942         2.658155
 H        -1.750408         4.096396         1.014786
 H         1.346820         3.704686         3.650672
 H         0.490147         2.083899         3.305793
 H         1.523671         3.968087         1.159924
 H         2.145495         2.196590         1.296115
 H         0.288759         2.972186        -0.428520
