19
Iteration:  4408charge 0 multiplicity 1
 O         0.191631         0.108032         0.865721
 C        -0.573249         1.263892         0.892076
 C        -2.017776         1.222807         0.348435
 C        -1.755667         1.775005         1.779985
 C        -1.217531         3.249385         1.597107
 O        -0.543507         3.825475         2.591799
 C         0.722007         3.071960         2.774371
 C         1.260526         2.965132         1.386722
 C        -0.050634         2.654728         0.626197
 H         0.596975        -0.032050         1.744151
 H        -2.343922         1.938590        -0.544787
 H        -2.371617         0.135618         0.266719
 H        -2.334859         1.289584         2.650870
 H        -1.910220         4.032638         1.169282
 H         1.506125         3.707935         3.364906
 H         0.712634         2.175062         3.253853
 H         1.798796         3.846257         0.943483
 H         1.900315         2.152724         1.211355
 H        -0.084673         2.850909        -0.435471
