19
Iteration:  3402charge 0 multiplicity 1
 O         0.092975        -0.079872         0.894472
 C        -0.555685         1.142452         0.822951
 C        -1.989947         1.289273         0.347407
 C        -1.730604         1.768836         1.779710
 C        -1.173070         3.217767         1.504962
 O        -0.491450         3.854713         2.738500
 C         0.767942         3.224855         2.828558
 C         1.207605         3.038503         1.327043
 C        -0.041727         2.676649         0.570320
 H         0.352777        -0.174346         1.803338
 H        -2.236868         2.031508        -0.425132
 H        -2.577791         0.359140         0.091223
 H        -2.312959         1.422094         2.748511
 H        -1.991840         3.741812         1.143929
 H         1.318218         3.890233         3.440738
 H         0.752964         2.136314         3.095396
 H         1.672825         3.951443         1.002680
 H         2.002731         2.245333         1.058669
 H        -0.163048         3.160208        -0.451522
