19
Iteration:   246
 O         0.058534         0.034124         1.093711
 C        -0.621238         1.175184         0.865319
 C        -2.095404         1.179011         0.374211
 C        -1.786452         1.846335         1.769606
 C        -1.192587         3.220494         1.476588
 O        -0.570716         3.694774         2.675386
 C         0.876956         3.362542         2.746004
 C         1.362747         3.045094         1.367082
 C         0.064221         2.619544         0.511155
 H         0.245293        -0.547155         0.314683
 H        -2.445501         1.826468        -0.536240
 H        -2.536171         0.256707         0.609852
 H        -2.371124         1.689360         2.596514
 H        -1.745196         4.151235         1.070823
 H         1.371218         4.062523         3.362322
 H         0.780403         2.330510         3.201170
 H         1.853664         3.864245         0.686590
 H         1.916097         2.024464         1.416570
 H         0.078851         2.763803        -0.529328
