19
Iteration:  2334
 O         0.173855         0.050108         0.863474
 C        -0.625546         1.206986         0.818137
 C        -2.099425         1.234166         0.396215
 C        -1.696693         1.728107         1.788729
 C        -1.184758         3.150232         1.576002
 O        -0.535562         3.936278         2.664153
 C         0.758652         3.417972         2.739827
 C         1.251824         2.809545         1.430588
 C        -0.040208         2.525796         0.650249
 H         0.844528        -0.037601         0.109539
 H        -2.359978         2.097836        -0.236054
 H        -2.742201         0.315533         0.358273
 H        -2.195985         1.305480         2.612477
 H        -1.693397         3.918814         1.040038
 H         1.414348         4.175915         2.987101
 H         0.721250         2.510887         3.497978
 H         1.734890         3.698017         0.979884
 H         1.852358         1.920362         1.593475
 H         0.095432         2.902977        -0.369872
