19
Iteration:  1660
 O         0.219188         0.084631         0.966388
 C        -0.584881         1.169995         0.779981
 C        -2.065356         1.193676         0.511518
 C        -1.773971         1.851558         1.792875
 C        -1.196972         3.244193         1.492804
 O        -0.519277         3.870590         2.571297
 C         0.716823         3.149757         2.802417
 C         1.262978         2.935573         1.391978
 C         0.037152         2.631678         0.523308
 H        -0.232462        -0.610816         0.391235
 H        -2.454000         1.865998        -0.306606
 H        -2.645365         0.241409         0.602590
 H        -2.040568         1.426141         2.749839
 H        -1.998943         3.953167         1.297717
 H         1.300799         3.824586         3.404992
 H         0.631981         2.150561         3.448620
 H         1.546788         3.893554         1.148196
 H         2.123219         2.234980         1.396204
 H         0.081286         3.088541        -0.470026
