19
Iteration:   249
 O         0.040810         0.017759         1.090971
 C        -0.648708         1.207461         0.847178
 C        -2.071572         1.174556         0.393386
 C        -1.777312         1.851329         1.754547
 C        -1.186985         3.245115         1.494477
 O        -0.570497         3.690568         2.653324
 C         0.859167         3.355520         2.747183
 C         1.348031         3.023692         1.358655
 C         0.080138         2.623544         0.525554
 H         0.277620        -0.380755         0.273273
 H        -2.447903         1.698518        -0.478893
 H        -2.437759         0.200427         0.649307
 H        -2.229836         1.575351         2.684558
 H        -1.755848         4.043272         0.971264
 H         1.461112         4.052550         3.373370
 H         0.848481         2.396014         3.224338
 H         1.787542         3.786395         0.776044
 H         1.886112         2.138971         1.528924
 H         0.101229         2.844548        -0.546809
