19
Iteration:  3799
 O         0.098219         0.009569         0.835766
 C        -0.618855         1.197258         0.756408
 C        -2.049835         1.241778         0.399670
 C        -1.686574         1.739095         1.735197
 C        -1.179304         3.149453         1.646285
 O        -0.505782         3.881985         2.656917
 C         0.758575         3.240565         2.835703
 C         1.221898         3.013112         1.349927
 C        -0.005995         2.590491         0.583230
 H         0.359825        -0.188056         1.809795
 H        -2.426585         1.954823        -0.498309
 H        -2.453109         0.261508         0.413804
 H        -2.262444         1.678495         2.609662
 H        -1.941485         3.884683         1.296906
 H         1.458331         3.982938         3.378543
 H         0.760312         2.172363         3.211271
 H         1.627871         4.019462         1.187923
 H         2.181272         2.367769         1.340502
 H         0.188751         3.000483        -0.510494
