19
Iteration:  4530charge 0 multiplicity 1
 O         0.108081         0.071968         0.869443
 C        -0.552538         1.245012         0.816662
 C        -2.062401         1.204084         0.334929
 C        -1.722603         1.729879         1.686192
 C        -1.228518         3.155513         1.592953
 O        -0.510350         3.829411         2.613364
 C         0.772074         3.220880         2.829764
 C         1.265910         2.956625         1.376104
 C        -0.042228         2.663179         0.686525
 H         0.384378        -0.092483         1.837788
 H        -2.426271         2.046126        -0.439949
 H        -2.472706         0.186296         0.293738
 H        -2.037560         1.260280         2.578165
 H        -1.938648         3.925671         1.172674
 H         1.414293         4.090899         3.355594
 H         0.811428         2.336909         3.481250
 H         1.761565         3.929000         1.120864
 H         1.917840         2.229016         1.134969
 H         0.116115         3.026058        -0.337824
