19
Iteration:  2445charge 0 multiplicity 1
 O         0.268033         0.206285         1.020389
 C        -0.691135         1.216806         0.872394
 C        -2.060707         1.192199         0.327730
 C        -1.804920         1.791736         1.743707
 C        -1.215536         3.197042         1.616927
 O        -0.465428         3.798952         2.656790
 C         0.852918         3.209397         2.722593
 C         1.207699         2.893120         1.310955
 C        -0.052121         2.655645         0.553142
 H         0.032414        -0.370933         1.743949
 H        -2.293924         1.831589        -0.519263
 H        -2.673447         0.249829         0.320247
 H        -2.290781         1.082604         2.476006
 H        -1.831094         3.982143         1.118081
 H         1.475625         3.875633         3.183410
 H         0.744075         2.243171         3.352649
 H         1.783361         3.693104         0.848384
 H         1.758122         1.919218         1.145883
 H        -0.120213         3.011937        -0.463986
