19
Iteration:  3061
 O         0.113438         0.056569         0.913032
 C        -0.681014         1.230161         0.909246
 C        -2.120749         1.202978         0.291780
 C        -1.779144         1.825805         1.738227
 C        -1.213262         3.204717         1.491966
 O        -0.539479         3.667716         2.730926
 C         0.871766         3.312252         2.764613
 C         1.396489         2.983727         1.335511
 C        -0.063968         2.627914         0.644989
 H         0.739532        -0.058388         1.699857
 H        -2.208445         2.010036        -0.546357
 H        -2.340043         0.096019         0.268933
 H        -2.368401         1.587584         2.642972
 H        -2.033019         3.995380         1.042165
 H         1.371187         4.229439         3.183100
 H         1.039694         2.461667         3.487564
 H         1.864924         3.907502         0.847926
 H         2.019792         2.097302         1.224436
 H         0.055832         2.891533        -0.462097
