19
Iteration:  4789charge 0 multiplicity 1
 O         0.216589         0.169816         0.846953
 C        -0.595695         1.340384         0.842951
 C        -2.048633         1.203828         0.377498
 C        -1.716901         1.841623         1.759936
 C        -1.216561         3.187567         1.490282
 O        -0.527890         3.831016         2.648835
 C         0.724868         3.079030         2.830721
 C         1.220887         2.878985         1.419595
 C        -0.026849         2.623708         0.586093
 H         0.363536        -0.107811         1.814325
 H        -2.387841         1.815167        -0.441834
 H        -2.392146         0.067129         0.378086
 H        -2.106797         1.545243         2.718449
 H        -2.025170         3.883506         1.160217
 H         1.433078         3.747590         3.462658
 H         0.410809         2.175136         3.361046
 H         1.930260         3.630856         1.004360
 H         1.998263         1.999871         1.327937
 H        -0.082018         2.841289        -0.602755
