19
Iteration:  3179charge 0 multiplicity 1
 O         0.077181         0.060485         0.790368
 C        -0.596054         1.272053         0.798544
 C        -2.070442         1.119901         0.427077
 C        -1.697296         1.798319         1.795045
 C        -1.178806         3.211747         1.521174
 O        -0.605768         3.848722         2.601726
 C         0.759503         3.268085         2.853947
 C         1.327419         2.846534         1.444335
 C         0.010659         2.694229         0.614868
 H         0.737669        -0.062687         1.481919
 H        -2.438837         1.749256        -0.410199
 H        -2.601416         0.144072         0.568865
 H        -2.181554         1.303333         2.714148
 H        -1.872115         3.948194         1.073146
 H         1.494300         4.050628         3.258770
 H         0.954617         2.356374         3.470220
 H         1.842335         3.873811         1.192621
 H         2.000175         2.011490         1.205176
 H         0.107418         3.013675        -0.488739
