19
Iteration:  3944charge 0 multiplicity 1
 O         0.072414         0.028377         0.862234
 C        -0.694163         1.235062         0.841306
 C        -2.061049         1.198809         0.312901
 C        -1.801472         1.679644         1.767959
 C        -1.101751         3.262383         1.520288
 O        -0.541680         3.765016         2.719742
 C         0.875657         3.280081         2.812440
 C         1.259044         2.993534         1.377161
 C        -0.008998         2.661900         0.606547
 H         0.719655         0.084492         1.621945
 H        -2.407437         1.919246        -0.448824
 H        -2.389589         0.048165         0.361752
 H        -2.105165         1.253694         2.703404
 H        -1.734047         3.968897         0.984992
 H         1.445196         4.023728         3.300795
 H         0.828549         2.419063         3.544665
 H         1.468157         3.991502         0.937440
 H         2.230028         2.417889         1.132963
 H         0.090848         2.901739        -0.508797
