19
Iteration:  3662charge 0 multiplicity 1
 O         0.140030         0.032635         0.906075
 C        -0.590413         1.217759         0.738628
 C        -2.097629         1.172633         0.452549
 C        -1.678600         1.850331         1.749086
 C        -1.176703         3.245690         1.437519
 O        -0.514688         3.784734         2.665510
 C         0.728577         3.068337         2.853197
 C         1.247432         3.031301         1.319469
 C        -0.006192         2.716009         0.633345
 H         0.372752        -0.026392         1.808762
 H        -2.456497         1.728434        -0.432188
 H        -2.539020         0.249984         0.593666
 H        -1.859891         1.621231         2.751990
 H        -1.900627         3.961173         1.005554
 H         1.281963         3.702032         3.528712
 H         0.556840         2.065603         3.241290
 H         1.687544         3.978448         0.995202
 H         2.019800         2.328176         1.214963
 H        -0.032285         3.150583        -0.259556
