19
Iteration:  1317
 O         0.214090         0.172805         1.089559
 C        -0.673238         1.246966         0.878242
 C        -2.059677         1.178874         0.404009
 C        -1.765248         1.853500         1.704850
 C        -1.192619         3.252772         1.478951
 O        -0.506556         3.726061         2.629417
 C         0.829208         3.096662         2.784464
 C         1.248661         2.968666         1.297791
 C        -0.069983         2.618983         0.592591
 H         0.197655        -0.588161         0.446229
 H        -2.318062         1.837285        -0.504646
 H        -2.488145         0.234289         0.515937
 H        -2.266367         1.665549         2.667666
 H        -1.873101         4.040138         1.160792
 H         1.464403         3.938804         3.369146
 H         0.752078         2.162227         3.398260
 H         1.667221         3.950272         0.812351
 H         2.098470         2.315954         1.158884
 H        -0.104995         2.929760        -0.404669
