19
Iteration:  3472charge 0 multiplicity 1
 O         0.105320         0.061800         0.801737
 C        -0.597025         1.207806         0.768422
 C        -2.057346         1.122905         0.476107
 C        -1.670864         1.902654         1.773282
 C        -1.177309         3.292108         1.499769
 O        -0.568041         3.746151         2.700501
 C         0.758754         3.269338         2.866369
 C         1.229712         2.856336         1.435346
 C        -0.036246         2.657490         0.541648
 H         0.904905         0.473704         1.209552
 H        -2.348995         1.607262        -0.476002
 H        -2.562268         0.225057         0.475758
 H        -2.118414         1.642087         2.639559
 H        -1.957164         4.066572         1.137189
 H         1.500428         4.022968         3.140280
 H         0.716777         2.340818         3.483409
 H         1.807947         3.641185         0.926004
 H         1.957297         2.087331         1.358269
 H         0.351424         2.723427        -0.455778
