19
Iteration:  4637
 O         0.129551         0.105309         0.862667
 C        -0.570567         1.280955         0.796750
 C        -2.032121         1.218741         0.413623
 C        -1.623789         1.753238         1.753085
 C        -1.145725         3.237988         1.559455
 O        -0.569966         3.800131         2.638546
 C         0.717963         3.197580         2.828079
 C         1.140419         2.900459         1.405871
 C         0.005740         2.647199         0.513791
 H         0.502690        -0.095257         1.792684
 H        -2.558555         1.830247        -0.356499
 H        -2.520725         0.286094         0.487596
 H        -2.046371         1.229740         2.595881
 H        -1.768418         4.008103         1.070681
 H         1.263325         3.857475         3.609683
 H         0.788333         2.233046         3.387631
 H         1.813561         3.710855         0.937004
 H         1.836022         1.901034         1.454727
 H         0.084625         3.185218        -0.448975
