19
Iteration:  3824charge 0 multiplicity 1
 O         0.109431         0.060591         0.886923
 C        -0.649640         1.240304         0.868910
 C        -2.023543         1.243500         0.366461
 C        -1.708994         1.744051         1.768713
 C        -1.158341         3.219620         1.515505
 O        -0.514737         3.798692         2.691879
 C         0.695690         3.186664         2.804000
 C         1.309649         2.945055         1.291462
 C        -0.091997         2.671437         0.625607
 H         0.916489         0.164189         1.439934
 H        -2.301623         1.905370        -0.374651
 H        -2.417426         0.223385         0.355799
 H        -1.995123         1.369930         2.740574
 H        -1.813913         3.952110         1.082350
 H         1.292917         3.936284         3.271027
 H         0.727671         2.196072         3.336319
 H         1.860402         3.882859         1.246871
 H         2.039354         2.097626         1.083055
 H        -0.052421         2.978953        -0.525037
