19
Iteration:  1883charge 0 multiplicity 1
 O         0.198786         0.222010         1.040866
 C        -0.707523         1.224824         0.830487
 C        -2.141847         1.152341         0.383607
 C        -1.789201         1.870994         1.668695
 C        -1.077909         3.195017         1.441739
 O        -0.548665         3.677760         2.747559
 C         0.874869         3.309220         2.794261
 C         1.259077         2.884894         1.369806
 C        -0.037237         2.570862         0.583299
 H         0.126552        -0.427751         0.268734
 H        -2.404128         1.696714        -0.571579
 H        -2.445513         0.193169         0.421809
 H        -2.059709         1.520011         2.711784
 H        -1.716864         4.050665         1.052793
 H         1.275867         4.193911         3.382307
 H         1.031697         2.517983         3.584421
 H         1.596443         3.651594         0.707949
 H         1.948702         2.088277         1.197935
 H        -0.064755         3.085737        -0.416338
