19
Iteration:  1437
 O         0.192503         0.090053         0.873068
 C        -0.637986         1.201181         0.836376
 C        -2.024082         1.151733         0.419676
 C        -1.616437         1.785942         1.865056
 C        -1.158904         3.264876         1.579902
 O        -0.523240         3.974820         2.548393
 C         0.656877         3.183681         2.773810
 C         1.275456         2.855595         1.397281
 C        -0.054007         2.643313         0.609491
 H        -0.314493        -0.716324         0.690118
 H        -2.292726         1.813514        -0.457992
 H        -2.683496         0.232699         0.704984
 H        -2.022752         1.402031         2.744733
 H        -1.950878         3.800005         1.100505
 H         1.397792         3.786186         3.421280
 H         0.425330         2.250739         3.121080
 H         1.905185         3.683858         1.003714
 H         1.990313         2.106246         1.338188
 H        -0.193008         3.042364        -0.383839
