19
Iteration:  3630
 O         0.108442         0.107607         0.936113
 C        -0.660106         1.281435         0.795124
 C        -1.996835         1.220006         0.346008
 C        -1.737050         1.775951         1.723287
 C        -1.279998         3.199596         1.602712
 O        -0.488404         3.779682         2.699346
 C         0.774307         3.190474         2.818932
 C         1.283033         2.953014         1.301299
 C         0.017062         2.617801         0.572516
 H         0.515262        -0.169776         1.836816
 H        -2.268788         1.813614        -0.551323
 H        -2.435885         0.291691         0.408771
 H        -2.061453         1.453662         2.646508
 H        -1.977665         3.873388         1.126009
 H         1.373413         3.932477         3.340908
 H         0.809865         2.231041         3.391485
 H         1.652755         3.812764         0.760836
 H         1.920844         2.217613         1.142193
 H        -0.003043         2.952975        -0.382740
