19
Iteration:  2715
 O         0.156659         0.018751         0.995347
 C        -0.636486         1.237403         0.821297
 C        -2.034384         1.230420         0.350345
 C        -1.861158         1.815801         1.712525
 C        -1.116354         3.262814         1.532122
 O        -0.491421         3.724549         2.709380
 C         0.821821         3.211041         2.822776
 C         1.242115         2.981534         1.316615
 C        -0.079962         2.588206         0.562749
 H         1.093507         0.396398         1.004357
 H        -2.527330         1.738967        -0.427059
 H        -2.450923         0.308543         0.566586
 H        -2.510017         1.485695         2.560977
 H        -1.614784         4.169099         1.007916
 H         1.273964         4.171383         3.229980
 H         0.799439         2.327533         3.468906
 H         1.693735         3.860374         0.891617
 H         1.957381         2.164532         1.248184
 H        -0.134761         3.012663        -0.437593
