19
Iteration:  1211charge 0 multiplicity 1
 O         0.084037        -0.061249         0.945428
 C        -0.663966         1.258086         0.772281
 C        -2.069608         1.173202         0.367713
 C        -1.705954         1.760056         1.772508
 C        -1.159034         3.225731         1.572531
 O        -0.564358         3.873059         2.663596
 C         0.882317         3.376934         2.851047
 C         1.256117         2.889347         1.394760
 C        -0.025143         2.634876         0.578853
 H         0.701462        -0.146992         0.187619
 H        -2.510096         1.848266        -0.397040
 H        -2.411754         0.143291         0.503250
 H        -2.001180         1.521616         2.744167
 H        -1.897089         3.925043         1.059450
 H         1.491198         4.227384         3.066196
 H         0.797823         2.470588         3.547540
 H         1.617854         3.788591         0.876476
 H         1.927624         2.003597         1.351298
 H         0.040293         2.873428        -0.585106
