19
Iteration:  4227charge 0 multiplicity 1
 O         0.180151         0.090007         0.869115
 C        -0.600701         1.224238         0.828519
 C        -2.037511         1.194165         0.404706
 C        -1.814551         1.776578         1.730890
 C        -1.167974         3.209633         1.556932
 O        -0.493348         3.856272         2.667132
 C         0.717720         3.130476         2.833890
 C         1.252021         2.921355         1.343245
 C        -0.053279         2.647514         0.605669
 H         1.045164         0.317133         1.352729
 H        -2.377245         1.942859        -0.435985
 H        -2.437401         0.234918         0.459608
 H        -2.385844         1.553843         2.721218
 H        -1.822710         4.009105         1.111344
 H         1.445148         3.713503         3.394082
 H         0.675425         2.111225         3.278372
 H         1.514380         3.832319         0.927956
 H         2.182861         2.332644         1.252802
 H        -0.126789         3.026070        -0.483405
