19
Iteration:  2120charge 0 multiplicity 1
 O         0.104774         0.027876         1.062603
 C        -0.580883         1.218754         0.814050
 C        -2.058333         1.259318         0.372395
 C        -1.759314         1.766622         1.809851
 C        -1.226474         3.173987         1.592565
 O        -0.492266         3.796666         2.622031
 C         0.747302         3.215642         2.719796
 C         1.274217         3.003979         1.298671
 C        -0.010516         2.666314         0.573802
 H         0.842140        -0.175096         0.390155
 H        -2.258224         2.077366        -0.331012
 H        -2.648914         0.339951         0.163884
 H        -2.150354         1.309882         2.761439
 H        -2.039499         3.763949         1.219138
 H         1.474327         3.927143         3.200701
 H         0.810184         2.269639         3.487262
 H         1.693648         3.859706         0.841861
 H         2.080261         2.201259         1.405299
 H         0.013001         3.041146        -0.453085
