19
Iteration:  3393charge 0 multiplicity 1
 O         0.073916        -0.025849         0.891018
 C        -0.598005         1.219796         0.871374
 C        -2.018947         1.221995         0.337762
 C        -1.682673         1.824446         1.724858
 C        -1.259037         3.203814         1.535332
 O        -0.510053         3.804562         2.726708
 C         0.765964         3.205142         2.753490
 C         1.299375         3.064802         1.360261
 C        -0.031211         2.639503         0.576348
 H         0.522907        -0.149562         1.723958
 H        -2.282683         1.946187        -0.398592
 H        -2.703025         0.296772         0.268748
 H        -2.082945         1.318234         2.689438
 H        -1.952075         4.048806         1.114803
 H         1.417852         3.655831         3.455649
 H         0.820640         2.159972         3.314071
 H         1.657635         3.948142         0.897445
 H         2.159945         2.336235         1.453240
 H        -0.035605         2.889508        -0.512407
