19
Iteration:   752charge 0 multiplicity 1
 O         0.026680        -0.006467         1.104885
 C        -0.661978         1.189977         0.830431
 C        -2.069633         1.139793         0.368514
 C        -1.841446         1.805560         1.669976
 C        -1.102856         3.279108         1.525685
 O        -0.492559         3.748597         2.757742
 C         0.851445         3.336843         2.803940
 C         1.330314         3.045483         1.260467
 C         0.025297         2.606232         0.565027
 H         0.095914        -0.350683         0.230925
 H        -2.382891         1.674540        -0.541157
 H        -2.539865         0.076699         0.548026
 H        -2.247254         1.521006         2.537200
 H        -1.737364         4.008121         1.061450
 H         1.357623         4.254560         3.076488
 H         0.968649         2.497417         3.451743
 H         1.686280         3.932436         0.662651
 H         2.060475         2.201899         1.261773
 H         0.069743         2.934808        -0.556884
