19
Iteration:  2846charge 0 multiplicity 1
 O         0.026480        -0.054272         0.815508
 C        -0.631252         1.188030         0.813393
 C        -2.014709         1.091105         0.324613
 C        -1.687045         1.799283         1.704092
 C        -1.086841         3.252809         1.592722
 O        -0.527829         3.857558         2.715294
 C         0.795583         3.374728         2.829419
 C         1.253444         2.974220         1.373972
 C        -0.066294         2.619438         0.660967
 H         0.822147         0.268459         1.328772
 H        -2.471921         1.737006        -0.437102
 H        -2.443536         0.195148         0.488843
 H        -2.320326         1.399719         2.481190
 H        -1.841901         4.000021         1.137046
 H         1.479457         4.100477         3.408320
 H         0.684863         2.558317         3.533659
 H         1.852499         3.724132         0.789805
 H         1.867450         2.036292         1.343141
 H        -0.112670         2.992417        -0.352840
