19
Iteration:  3020charge 0 multiplicity 1
 O         0.051053        -0.040863         0.994631
 C        -0.649994         1.149122         0.795698
 C        -2.032249         1.204868         0.289027
 C        -1.665488         1.701277         1.745293
 C        -1.180430         3.275862         1.503168
 O        -0.501233         3.793021         2.718615
 C         0.893288         3.211569         2.785891
 C         1.267978         3.097612         1.335114
 C        -0.064926         2.727140         0.593446
 H         0.057651        -0.082870         1.942403
 H        -2.347939         1.930723        -0.496897
 H        -2.696324         0.246560         0.219185
 H        -2.365450         1.172799         2.480396
 H        -1.828654         4.015966         1.244709
 H         1.430729         3.891437         3.459484
 H         0.798467         2.275898         3.406801
 H         1.480546         4.095623         0.997854
 H         2.177739         2.546555         1.052458
 H        -0.066010         2.922510        -0.484179
