19
Iteration:  4769
 O         0.211699         0.085360         0.832046
 C        -0.639443         1.260581         0.821091
 C        -2.027875         1.112018         0.443423
 C        -1.769621         1.829172         1.705780
 C        -1.102069         3.329576         1.499494
 O        -0.586323         3.774496         2.654860
 C         0.745917         3.125803         2.793558
 C         1.249816         2.884785         1.430593
 C        -0.012535         2.721965         0.624499
 H         0.418390        -0.074608         1.799516
 H        -2.418716         1.693073        -0.350915
 H        -2.650769         0.163696         0.543341
 H        -2.238558         1.598116         2.594665
 H        -1.752968         4.160192         1.200257
 H         1.199698         3.839953         3.594867
 H         0.545764         2.143705         3.266291
 H         1.759912         3.835526         0.982804
 H         2.008238         2.080441         1.034004
 H         0.047917         3.099491        -0.476735
