19
Iteration:  2520charge 0 multiplicity 1
 O         0.154827         0.050577         1.110751
 C        -0.662734         1.150746         0.903596
 C        -2.029167         1.223266         0.339788
 C        -1.801949         1.845522         1.738079
 C        -1.144545         3.175096         1.519567
 O        -0.489406         3.752143         2.687668
 C         0.868854         3.191045         2.742494
 C         1.235446         3.127785         1.290106
 C        -0.044383         2.607344         0.548703
 H         0.000022        -0.385121         0.223040
 H        -2.330153         1.752606        -0.605855
 H        -2.732727         0.274390         0.538422
 H        -2.320953         1.546490         2.692212
 H        -1.769375         3.988815         1.244081
 H         1.443826         3.903930         3.293118
 H         0.871472         2.278247         3.209007
 H         1.435875         4.116062         0.874560
 H         2.079733         2.406702         1.114030
 H        -0.124343         2.886338        -0.525809
