19
Iteration:  2946
 O         0.200824         0.150355         0.893272
 C        -0.652819         1.261434         0.800633
 C        -2.147892         1.073630         0.390129
 C        -1.739844         1.815800         1.746708
 C        -1.224542         3.294824         1.544262
 O        -0.522169         3.899737         2.645943
 C         0.794283         3.106572         2.824324
 C         1.274638         2.867210         1.412051
 C        -0.004914         2.618838         0.538389
 H         1.070904         0.462785         1.308728
 H        -2.665200         1.685698        -0.187828
 H        -2.618677         0.016420         0.439376
 H        -2.134792         1.336828         2.707864
 H        -1.786733         4.190745         1.099389
 H         1.384277         3.816265         3.373776
 H         0.555163         2.257953         3.432914
 H         1.821975         3.603857         0.898176
 H         1.937027         1.944347         1.477383
 H         0.240391         2.893165        -0.453887
