19
Iteration:  3620charge 0 multiplicity 1
 O         0.135754         0.058869         0.924829
 C        -0.606633         1.224302         0.855891
 C        -2.012982         1.253786         0.292250
 C        -1.732795         1.798306         1.766552
 C        -1.208244         3.199384         1.544336
 O        -0.533660         3.752758         2.692748
 C         0.829549         3.235818         2.737126
 C         1.290458         2.919242         1.351782
 C        -0.130300         2.655214         0.636294
 H         0.598540         0.177011         1.812343
 H        -2.342361         2.025186        -0.447461
 H        -2.472383         0.306638         0.251782
 H        -2.255769         1.329829         2.532157
 H        -1.792276         4.017511         1.167854
 H         1.407357         3.922601         3.314780
 H         0.863109         2.284790         3.348087
 H         1.644193         3.836142         0.917030
 H         1.896351         2.128839         1.185781
 H        -0.077922         3.012639        -0.369230
