19
Iteration:  3889charge 0 multiplicity 1
 O         0.112559         0.125036         0.898267
 C        -0.588844         1.270484         0.811689
 C        -1.994427         1.224844         0.422612
 C        -1.711770         1.785569         1.746553
 C        -1.222468         3.248639         1.515032
 O        -0.490468         3.785853         2.694069
 C         0.733446         3.059903         2.768191
 C         1.228886         2.997615         1.345360
 C        -0.043590         2.633389         0.585298
 H         0.635397         0.257882         1.774593
 H        -2.471429         1.607559        -0.472839
 H        -2.485701         0.180757         0.531648
 H        -1.943731         1.553592         2.739528
 H        -1.809236         4.101300         1.207836
 H         1.384142         3.637926         3.386736
 H         0.506391         2.036911         3.233917
 H         1.667420         3.890323         0.898717
 H         2.049703         2.184708         1.268549
 H        -0.050027         2.796390        -0.580055
