19
Iteration:  3649
 O         0.121852         0.051269         0.916542
 C        -0.628259         1.274393         0.808813
 C        -2.089034         1.141598         0.382253
 C        -1.676275         1.793419         1.727443
 C        -1.132080         3.249841         1.527874
 O        -0.524339         3.792458         2.698373
 C         0.754951         3.148710         2.754808
 C         1.291605         3.019378         1.415370
 C        -0.060219         2.691211         0.513815
 H         0.257042        -0.093241         1.922703
 H        -2.636564         1.766882        -0.292353
 H        -2.363563         0.122619         0.454416
 H        -2.135077         1.310793         2.586258
 H        -1.783134         4.085439         1.140550
 H         1.438741         3.619393         3.506222
 H         0.677702         2.166283         3.221652
 H         1.608364         4.050002         1.100705
 H         2.049385         2.133664         1.281081
 H         0.051677         2.982548        -0.524114
