19
Iteration:  2820charge 0 multiplicity 1
 O         0.176595         0.052159         0.896013
 C        -0.617458         1.278047         0.887592
 C        -2.072168         1.267886         0.387369
 C        -1.745451         1.769623         1.738131
 C        -1.200093         3.257959         1.536046
 O        -0.569560         3.737379         2.635880
 C         0.798642         3.233060         2.792875
 C         1.316261         2.868264         1.364021
 C        -0.063978         2.628515         0.562447
 H         0.701933         0.263648         1.730784
 H        -2.484764         2.027887        -0.376481
 H        -2.559788         0.189111         0.337833
 H        -2.159651         1.330397         2.658627
 H        -1.925559         3.920292         1.136519
 H         1.347730         4.116253         3.200865
 H         0.815226         2.590154         3.702300
 H         1.852612         3.792867         0.956616
 H         2.065764         2.057777         1.254775
 H        -0.104625         2.897230        -0.532537
