19
Iteration:  2952
 O         0.257641         0.102925         0.916805
 C        -0.693342         1.294827         0.788460
 C        -2.114656         1.141839         0.437330
 C        -1.758583         1.838213         1.763900
 C        -1.220956         3.312392         1.505167
 O        -0.513650         3.828226         2.663646
 C         0.751704         3.169182         2.823278
 C         1.255953         2.845931         1.393369
 C        -0.026240         2.584958         0.527899
 H         1.086183         0.525495         1.221185
 H        -2.854432         1.692418        -0.365967
 H        -2.426927         0.143230         0.420595
 H        -2.190096         1.383058         2.608151
 H        -1.800839         4.088422         1.057387
 H         1.489926         3.710946         3.490525
 H         0.658086         2.174617         3.377234
 H         1.954622         3.615194         0.911984
 H         1.943278         2.012740         1.450757
 H         0.159013         2.974024        -0.526835
