19
Iteration:    60
 O        -0.029821        -0.103657         0.924303
 C        -0.630547         1.180689         0.843644
 C        -2.095237         1.182542         0.387165
 C        -1.651382         1.747866         1.735009
 C        -1.102450         3.188619         1.455670
 O        -0.586868         3.899389         2.650069
 C         0.807279         3.460216         2.806749
 C         1.334332         2.974195         1.451073
 C        -0.027686         2.601120         0.667379
 H         0.674138        -0.152792         0.252063
 H        -2.406125         1.974224        -0.327825
 H        -2.447020         0.101709         0.277556
 H        -1.900100         1.372692         2.774690
 H        -1.804468         3.904842         0.923910
 H         1.468098         4.213167         3.237744
 H         0.903382         2.508135         3.410704
 H         1.877300         3.797843         0.815250
 H         2.080853         2.100900         1.576978
 H         0.049753         2.886557        -0.478005
