19
Iteration:   831
 O         0.198759         0.114485         1.043477
 C        -0.681234         1.245308         0.836867
 C        -2.036982         1.124665         0.397253
 C        -1.708876         1.824693         1.711371
 C        -1.109156         3.282429         1.511611
 O        -0.435955         3.886647         2.647075
 C         0.804375         3.128201         2.790041
 C         1.173757         2.892712         1.387484
 C        -0.141178         2.637533         0.482319
 H        -0.346881        -0.653273         0.917235
 H        -2.429384         1.773129        -0.370264
 H        -2.549231         0.179950         0.499061
 H        -2.272960         1.515410         2.659519
 H        -1.911096         3.916126         1.209955
 H         1.549904         3.759131         3.313445
 H         0.678439         2.343388         3.477013
 H         1.591604         3.794666         1.020058
 H         2.079636         2.217630         1.228971
 H         0.057197         2.980448        -0.598444
