19
Iteration:  1400charge 0 multiplicity 1
 O         0.129262         0.031443         0.928453
 C        -0.679431         1.169933         0.837585
 C        -2.113641         1.180172         0.457071
 C        -1.673904         1.861387         1.799195
 C        -1.106996         3.181914         1.470242
 O        -0.580676         3.779556         2.621607
 C         0.783680         3.308403         2.770986
 C         1.336783         2.990049         1.373554
 C         0.013367         2.606749         0.617432
 H         0.102343        -0.416003         0.116160
 H        -2.491551         1.815539        -0.376914
 H        -2.693065         0.335752         0.654571
 H        -2.163726         1.423619         2.748178
 H        -1.840338         3.944669         1.107767
 H         1.238499         4.065457         3.322611
 H         0.738091         2.448737         3.591257
 H         1.546970         3.916904         0.894866
 H         2.191599         2.267817         1.452732
 H         0.130690         3.099041        -0.416492
