19
Iteration:  2157charge 0 multiplicity 1
 O         0.192286         0.109631         1.036908
 C        -0.701114         1.234046         0.808286
 C        -2.061550         1.066736         0.360684
 C        -1.785543         1.840165         1.742726
 C        -1.202130         3.257075         1.553154
 O        -0.445779         3.825405         2.676886
 C         0.765807         3.182683         2.752572
 C         1.222974         2.923766         1.337791
 C        -0.033078         2.635565         0.577095
 H         0.960293         0.196075         0.381519
 H        -2.366023         1.681184        -0.523349
 H        -2.707377         0.186485         0.476731
 H        -2.165328         1.621448         2.724300
 H        -1.818845         4.170184         1.420413
 H         1.486347         3.861145         3.219207
 H         0.706937         2.074889         3.332862
 H         1.795717         3.924131         1.056802
 H         1.945757         2.135510         1.187968
 H         0.004522         2.971113        -0.471901
