19
Iteration:  4497charge 0 multiplicity 1
 O         0.178179         0.074285         0.882761
 C        -0.613663         1.209487         0.833947
 C        -2.008534         1.198927         0.363641
 C        -1.715754         1.816694         1.659910
 C        -1.257917         3.243539         1.598174
 O        -0.548345         3.819280         2.766399
 C         0.755790         3.172576         2.756284
 C         1.264652         2.935733         1.326558
 C        -0.008543         2.580173         0.614105
 H         0.676610        -0.022176         1.720594
 H        -2.230133         2.039316        -0.545619
 H        -2.687851         0.413239         0.353431
 H        -2.189722         1.518552         2.589462
 H        -1.923336         4.031567         1.131765
 H         1.234098         4.033370         3.411904
 H         0.712428         2.341759         3.413079
 H         1.704977         3.900996         0.923756
 H         1.837425         2.181107         1.045239
 H         0.049194         2.839059        -0.455119
