19
Iteration:  2724
 O         0.147479         0.125771         1.011953
 C        -0.675215         1.153016         0.861538
 C        -2.084844         1.229708         0.335406
 C        -1.747790         1.873894         1.724499
 C        -1.117934         3.236740         1.488158
 O        -0.537825         3.696292         2.701695
 C         0.832843         3.191551         2.761414
 C         1.244440         2.996843         1.347480
 C        -0.079803         2.572766         0.584457
 H         1.098165         0.378930         1.150406
 H        -2.310609         1.839145        -0.541993
 H        -2.766027         0.303376         0.379881
 H        -2.240628         1.469863         2.642348
 H        -1.860136         4.033997         1.057243
 H         1.515279         3.859466         3.454463
 H         0.844611         2.245736         3.231206
 H         1.741236         3.964709         0.980886
 H         2.104725         2.288442         1.292693
 H        -0.094332         2.867618        -0.490435
