19
Iteration:  3778
 O         0.084429        -0.025675         0.791029
 C        -0.626033         1.239770         0.851504
 C        -2.061428         1.179602         0.386029
 C        -1.678086         1.736371         1.759811
 C        -1.132328         3.262628         1.514199
 O        -0.604915         3.829642         2.641192
 C         0.862672         3.256781         2.869773
 C         1.229462         3.027831         1.384506
 C        -0.029454         2.625450         0.651168
 H         0.237556        -0.415366         1.622225
 H        -2.335308         2.015787        -0.330002
 H        -2.606959         0.301649         0.444648
 H        -1.892012         1.280207         2.666753
 H        -1.730657         4.028754         0.990030
 H         1.552154         3.955770         3.441359
 H         0.845483         2.196139         3.260068
 H         1.617000         3.904302         0.818531
 H         2.084082         2.244916         1.412487
 H         0.025607         3.145593        -0.444299
