19
Iteration:  2622charge 0 multiplicity 1
 O         0.177819         0.053593         0.733903
 C        -0.570711         1.252156         0.823549
 C        -2.023136         1.140182         0.500559
 C        -1.701418         1.806553         1.861929
 C        -1.218476         3.211811         1.528137
 O        -0.531692         4.011084         2.575228
 C         0.751792         3.174997         2.810294
 C         1.243015         2.882658         1.447933
 C        -0.032112         2.606610         0.626816
 H        -0.444537        -0.613071         1.003349
 H        -2.515633         1.784009        -0.398431
 H        -2.422814         0.170790         0.519833
 H        -1.987960         1.441692         2.840614
 H        -1.901615         3.898287         0.950521
 H         1.491118         3.789728         3.226511
 H         0.520218         2.323406         3.356876
 H         1.699165         3.814066         1.017938
 H         2.060504         2.093764         1.594716
 H         0.034292         2.837038        -0.447739
