19
Iteration:  3033
 O         0.074529        -0.041413         1.003573
 C        -0.605392         1.227745         0.829984
 C        -2.061272         1.291470         0.272937
 C        -1.710378         1.805430         1.678735
 C        -1.180008         3.185594         1.593075
 O        -0.494211         3.736850         2.741602
 C         0.819026         3.267906         2.800672
 C         1.219567         3.083233         1.301389
 C        -0.046067         2.599395         0.526678
 H         0.160043        -0.334664         1.957687
 H        -2.229323         1.986309        -0.432339
 H        -2.405936         0.212691         0.169563
 H        -1.869224         1.445554         2.734752
 H        -1.909493         3.844878         1.283146
 H         1.454825         4.053031         3.164934
 H         0.968729         2.328317         3.339391
 H         1.523912         4.015387         0.925726
 H         2.002553         2.291126         1.190408
 H         0.041881         2.960883        -0.491571
