19
Iteration:  4993charge 0 multiplicity 1
 O         0.085405         0.053476         0.889929
 C        -0.584449         1.238014         0.836691
 C        -1.988512         1.167729         0.366969
 C        -1.710466         1.847896         1.754462
 C        -1.222559         3.262867         1.538461
 O        -0.516160         3.815274         2.652857
 C         0.677885         3.095820         2.813988
 C         1.262664         2.936614         1.407471
 C        -0.020104         2.708853         0.529148
 H         1.060684         0.088076         1.177002
 H        -2.228806         1.759891        -0.480563
 H        -2.353466         0.133586         0.484892
 H        -1.814485         1.478676         2.874199
 H        -1.856675         4.060810         1.163410
 H         1.193174         3.598248         3.549423
 H         0.366481         2.118388         3.225787
 H         1.667025         3.904937         1.167806
 H         2.071166         2.255466         1.469620
 H         0.059087         3.073105        -0.481492
