19
Iteration:  4891
 O         0.101336        -0.011007         0.858467
 C        -0.643763         1.186897         0.814240
 C        -2.059184         1.264624         0.293518
 C        -1.722642         1.802886         1.673415
 C        -1.111734         3.142449         1.580590
 O        -0.547578         3.795202         2.704779
 C         0.794391         3.285242         2.834041
 C         1.265939         3.001374         1.395135
 C        -0.024222         2.608441         0.643601
 H         0.660380        -0.056551         1.609566
 H        -2.398689         1.837948        -0.575749
 H        -2.546707         0.379094         0.305328
 H        -2.138685         1.463764         2.614311
 H        -1.801747         3.858109         1.173535
 H         1.309008         4.080599         3.372953
 H         0.736110         2.485589         3.563846
 H         1.517038         3.992061         0.926363
 H         2.097733         2.269122         1.398857
 H        -0.029269         3.097038        -0.412949
