19
Iteration:   146
 O         0.315385         0.222489         1.003162
 C        -0.670494         1.272863         0.868701
 C        -2.097995         1.126307         0.493489
 C        -1.767917         1.952683         1.747883
 C        -1.069943         3.282960         1.420837
 O        -0.525126         3.792957         2.581500
 C         0.680597         3.007273         2.791501
 C         1.222352         2.874823         1.352144
 C        -0.033076         2.651970         0.537160
 H        -0.081578        -0.623362         1.401632
 H        -2.558909         1.625190        -0.379736
 H        -2.538577         0.074906         0.750614
 H        -2.136582         1.548704         2.765307
 H        -1.793463         4.050599         1.009933
 H         1.245955         3.644240         3.429585
 H         0.323610         2.120045         3.348032
 H         1.759211         3.804217         0.896131
 H         2.148866         2.214695         1.201073
 H         0.085952         2.742890        -0.514465
