19
Iteration:   875charge 0 multiplicity 1
 O         0.263735         0.214469         0.888853
 C        -0.615610         1.259789         0.889085
 C        -2.143246         1.154420         0.609865
 C        -1.669627         1.913633         1.836403
 C        -1.198248         3.256408         1.382324
 O        -0.493417         3.856500         2.524128
 C         0.668497         3.028474         2.833500
 C         1.203403         2.857136         1.428215
 C         0.031852         2.628780         0.514636
 H        -0.212983        -0.495009         0.488860
 H        -2.653628         1.604969        -0.265090
 H        -2.443470         0.148989         0.663947
 H        -2.092502         1.876135         2.920569
 H        -1.856582         3.929786         0.877624
 H         1.442791         3.549695         3.439305
 H         0.490648         2.122669         3.377530
 H         1.832443         3.662614         1.169977
 H         1.949588         2.016146         1.228688
 H         0.153890         2.741766        -0.632194
