19
Iteration:  1920
 O         0.042389         0.037609         1.075287
 C        -0.598872         1.216366         0.836136
 C        -1.960196         1.227677         0.326437
 C        -1.703727         1.777889         1.713734
 C        -1.158091         3.202264         1.574000
 O        -0.532221         3.799159         2.654819
 C         0.850453         3.284457         2.850785
 C         1.208820         2.909397         1.254819
 C        -0.118927         2.705391         0.627572
 H         0.405352        -0.360907         0.271103
 H        -2.304827         1.895848        -0.378279
 H        -2.352329         0.160629         0.113146
 H        -1.975515         1.345055         2.633896
 H        -1.919107         3.881665         1.234015
 H         1.591776         4.060422         3.076905
 H         0.909181         2.304134         3.294852
 H         1.765561         3.754377         0.779647
 H         1.840179         2.054568         1.310650
 H        -0.109565         3.100775        -0.400103
