19
Iteration:  2853
 O         0.037910        -0.080056         0.804597
 C        -0.637705         1.199663         0.836165
 C        -2.051827         1.119194         0.317149
 C        -1.698853         1.759007         1.713486
 C        -1.132920         3.288234         1.592610
 O        -0.524816         3.881351         2.674920
 C         0.827588         3.351368         2.886141
 C         1.311547         2.959269         1.391197
 C        -0.079143         2.636840         0.640448
 H         0.884792        -0.015760         1.254692
 H        -2.527721         1.642574        -0.642160
 H        -2.508118         0.088574         0.551149
 H        -2.224279         1.357562         2.576018
 H        -1.781623         3.976672         1.121395
 H         1.298357         4.302487         3.217648
 H         0.849734         2.403232         3.512078
 H         1.693214         3.958676         0.975608
 H         2.046676         2.143977         1.465303
 H        -0.155873         3.019218        -0.426505
