19
Iteration:  2890charge 0 multiplicity 1
 O         0.064123         0.001268         0.758973
 C        -0.631428         1.173145         0.888097
 C        -2.087490         1.299402         0.422886
 C        -1.577978         1.779530         1.847583
 C        -1.095702         3.171479         1.497376
 O        -0.603676         3.852903         2.636785
 C         0.687729         3.274160         2.801954
 C         1.295253         2.987113         1.384039
 C         0.015088         2.575701         0.609361
 H         0.670898        -0.287191         1.491808
 H        -2.390647         1.900126        -0.453770
 H        -2.511565         0.327238         0.530478
 H        -2.084559         1.346829         2.753263
 H        -1.767086         3.936280         0.913933
 H         1.207772         3.976508         3.525296
 H         0.665394         2.338113         3.404333
 H         1.674420         3.886722         0.840282
 H         2.200519         2.309406         1.449148
 H        -0.050116         2.935943        -0.402999
