19
Iteration:  4916charge 0 multiplicity 1
 O         0.075317         0.066272         0.892989
 C        -0.620346         1.236969         0.760662
 C        -1.955422         1.224738         0.339006
 C        -1.720287         1.723138         1.687841
 C        -1.215131         3.237644         1.594819
 O        -0.528810         3.815182         2.685704
 C         0.782452         3.218010         2.766490
 C         1.324135         2.923994         1.416594
 C        -0.081365         2.687822         0.599981
 H         0.430926        -0.005638         1.763439
 H        -2.358174         1.878149        -0.395812
 H        -2.400873         0.128040         0.213486
 H        -2.040260         1.136586         2.725112
 H        -1.928772         4.003784         1.276467
 H         1.272829         3.942629         3.302942
 H         0.644480         2.413881         3.511521
 H         1.867565         3.777736         1.057903
 H         1.871899         2.051867         1.484386
 H        -0.021103         3.007749        -0.384635
