19
Iteration:  2695
 O         0.045390         0.034066         0.887341
 C        -0.621268         1.205292         0.861544
 C        -2.023312         1.082447         0.337950
 C        -1.796986         1.861678         1.690773
 C        -1.223819         3.250860         1.546747
 O        -0.526517         3.800168         2.723226
 C         0.904894         3.301180         2.754849
 C         1.298535         2.922755         1.388975
 C        -0.066126         2.670172         0.644241
 H         1.020275         0.097984         1.108496
 H        -2.224869         1.582547        -0.621874
 H        -2.423481         0.160997         0.416635
 H        -2.187250         1.558378         2.671157
 H        -1.986097         3.914363         1.261248
 H         1.436126         4.126875         3.169340
 H         0.793085         2.316310         3.375752
 H         1.838654         3.712317         1.001646
 H         1.972582         2.075195         1.331215
 H         0.040021         3.038070        -0.375960
