19
Iteration:  3055
 O         0.086572         0.071345         0.933437
 C        -0.659417         1.214713         0.857783
 C        -2.027365         1.266841         0.333753
 C        -1.766041         1.768952         1.767555
 C        -1.162214         3.221868         1.497397
 O        -0.579492         3.653017         2.733818
 C         0.838661         3.321697         2.740993
 C         1.389082         2.998362         1.301235
 C        -0.079374         2.625095         0.641247
 H         0.464792        -0.101828         1.788304
 H        -2.254142         1.925528        -0.416092
 H        -2.511316         0.242330         0.394706
 H        -2.566132         1.444352         2.467998
 H        -1.758953         3.911144         1.058411
 H         1.402275         4.143841         3.137868
 H         1.003768         2.387380         3.300640
 H         1.761808         3.857013         0.819243
 H         2.088320         2.128085         1.256384
 H         0.104027         2.921842        -0.355362
