19
Iteration:  1245charge 0 multiplicity 1
 O         0.225418         0.147446         1.019721
 C        -0.663217         1.284222         0.871668
 C        -2.070414         1.218404         0.385423
 C        -1.696124         1.811065         1.818045
 C        -1.196700         3.215919         1.545104
 O        -0.550332         3.896386         2.581040
 C         0.798091         3.131495         2.755074
 C         1.256944         2.858318         1.354628
 C        -0.061984         2.576586         0.588345
 H         0.513474        -0.283349         0.131307
 H        -2.460905         1.925606        -0.338724
 H        -2.622506         0.150650         0.324151
 H        -2.077337         1.430876         2.726085
 H        -1.993040         3.928433         1.124733
 H         1.331343         3.612492         3.535742
 H         0.564069         2.233021         3.410487
 H         1.709272         3.733719         0.949308
 H         2.042631         2.068992         1.098429
 H         0.047451         2.819433        -0.578878
