19
Iteration:  2108
 O         0.124756         0.019458         1.072794
 C        -0.694237         1.216520         0.812807
 C        -2.136479         1.278390         0.393152
 C        -1.633090         1.742169         1.753511
 C        -1.192178         3.190715         1.540675
 O        -0.544276         3.753192         2.619114
 C         0.838579         3.271824         2.758890
 C         1.321901         3.059867         1.383256
 C        -0.042385         2.599674         0.538481
 H         0.383421        -0.238560         0.204694
 H        -2.476557         1.990006        -0.397270
 H        -2.532618         0.315685         0.320824
 H        -2.041115         1.261169         2.713503
 H        -1.837805         3.964132         1.145996
 H         1.241695         4.063280         3.443441
 H         0.791513         2.205913         3.282739
 H         1.657523         3.973215         1.010221
 H         2.196916         2.334468         1.364020
 H         0.035029         2.919403        -0.513700
