19
Iteration:  2851
 O         0.033122        -0.078059         0.805983
 C        -0.632565         1.200162         0.835365
 C        -2.041780         1.114144         0.310084
 C        -1.687573         1.768840         1.704901
 C        -1.112501         3.289967         1.598058
 O        -0.527382         3.873205         2.684228
 C         0.821426         3.362197         2.877118
 C         1.303383         2.965295         1.381129
 C        -0.084868         2.628626         0.647460
 H         0.849818         0.102630         1.271345
 H        -2.506820         1.636993        -0.545111
 H        -2.519165         0.055594         0.556374
 H        -2.278043         1.364142         2.550340
 H        -1.780109         3.963440         1.131876
 H         1.314227         4.229921         3.246954
 H         0.783003         2.436758         3.514951
 H         1.710274         3.872870         0.942319
 H         1.966666         2.113956         1.437911
 H        -0.167713         3.011923        -0.396451
