19
Iteration:   143charge 0 multiplicity 1
 O         0.319363         0.213737         1.002534
 C        -0.658461         1.260526         0.840549
 C        -2.098320         1.122436         0.500018
 C        -1.766800         1.952046         1.757340
 C        -1.123001         3.297765         1.414886
 O        -0.511215         3.803946         2.578522
 C         0.675200         3.016230         2.783475
 C         1.240928         2.881633         1.352805
 C        -0.029067         2.633709         0.567351
 H        -0.048635        -0.575278         1.353007
 H        -2.584034         1.601005        -0.348952
 H        -2.504117         0.152068         0.702014
 H        -2.141480         1.605638         2.721449
 H        -1.753136         4.077922         1.013794
 H         1.301542         3.602212         3.505253
 H         0.353849         2.078661         3.285675
 H         1.698352         3.743188         0.904987
 H         2.042237         2.142942         1.260206
 H         0.080546         2.792277        -0.488206
