19
Iteration:   148
 O         0.307863         0.228041         1.005441
 C        -0.674822         1.278899         0.891656
 C        -2.100277         1.126070         0.489502
 C        -1.768436         1.943915         1.743669
 C        -1.044560         3.275968         1.425809
 O        -0.533596         3.786961         2.585188
 C         0.682800         3.004364         2.796453
 C         1.219052         2.870622         1.349281
 C        -0.034105         2.655179         0.515643
 H        -0.096989        -0.598636         1.410669
 H        -2.532077         1.630809        -0.402650
 H        -2.535194         0.097609         0.767879
 H        -2.108554         1.557199         2.731732
 H        -1.795473         4.016286         1.008537
 H         1.247274         3.688598         3.398927
 H         0.342620         2.134486         3.371724
 H         1.750286         3.839236         0.954264
 H         2.153339         2.256312         1.170710
 H         0.090915         2.752459        -0.601946
