19
Iteration:  3741charge 0 multiplicity 1
 O         0.095144         0.082365         0.838222
 C        -0.626549         1.196741         0.816020
 C        -2.068511         1.191286         0.389496
 C        -1.696490         1.781670         1.726924
 C        -1.110470         3.242819         1.554958
 O        -0.582425         3.817827         2.690737
 C         0.829497         3.284659         2.842674
 C         1.234865         2.869878         1.359718
 C        -0.038740         2.613708         0.604050
 H         0.927437         0.291302         1.225477
 H        -2.406419         1.845452        -0.455158
 H        -2.727955         0.206160         0.367556
 H        -1.966838         1.280249         2.733670
 H        -1.744325         3.946100         0.969755
 H         1.245696         4.056358         3.477434
 H         0.763607         2.400269         3.485002
 H         1.720911         3.760752         0.995698
 H         1.957157         2.104170         1.389214
 H        -0.008401         2.999175        -0.374953
