19
Iteration:   731charge 0 multiplicity 1
 O         0.002388         0.061039         1.154149
 C        -0.642492         1.263161         0.793682
 C        -2.082620         1.174219         0.324339
 C        -1.683731         1.719953         1.754866
 C        -1.209098         3.204915         1.531905
 O        -0.494858         3.805641         2.625890
 C         0.882046         3.281191         2.720148
 C         1.321302         2.967162         1.343588
 C        -0.031386         2.667013         0.614563
 H         0.468767        -0.293342         0.312276
 H        -2.495080         1.807611        -0.444665
 H        -2.540245         0.126859         0.487268
 H        -2.040935         1.381728         2.648593
 H        -1.883660         3.881390         1.042018
 H         1.503246         3.971959         3.347801
 H         0.748365         2.321422         3.178641
 H         1.834173         3.838373         0.895316
 H         2.025009         2.088000         1.318222
 H        -0.138863         3.143846        -0.445987
