19
Iteration:   455
 O         0.158490         0.092768         1.153773
 C        -0.634396         1.243042         0.808305
 C        -2.137498         1.158278         0.454464
 C        -1.634533         1.900932         1.697812
 C        -1.145959         3.332564         1.447899
 O        -0.594342         3.699048         2.681065
 C         0.766332         3.166431         2.751648
 C         1.299725         2.961730         1.313150
 C         0.000157         2.655939         0.523241
 H        -0.050631        -0.541297         0.388099
 H        -2.619960         1.681004        -0.355951
 H        -2.419103         0.037545         0.665185
 H        -2.098949         1.360563         2.528218
 H        -1.810791         4.123666         1.048615
 H         1.361298         3.928020         3.200973
 H         0.807189         2.193991         3.328650
 H         1.916647         3.882812         0.935573
 H         1.903339         2.042786         1.263703
 H         0.071941         3.063335        -0.501799
