19
Iteration:  4883charge 0 multiplicity 1
 O         0.094103        -0.021855         0.837378
 C        -0.616841         1.123176         0.768901
 C        -2.018121         1.287613         0.349243
 C        -1.767096         1.826034         1.674252
 C        -1.140923         3.206054         1.571983
 O        -0.549313         3.756398         2.686238
 C         0.772151         3.302686         2.827241
 C         1.297951         3.022600         1.429134
 C        -0.048171         2.587667         0.652564
 H         0.680656         0.056547         1.587351
 H        -2.327116         1.886488        -0.496789
 H        -2.629838         0.296927         0.430983
 H        -2.244065         1.380815         2.692433
 H        -1.740205         3.998179         1.114756
 H         1.329531         4.076809         3.212168
 H         0.870132         2.383921         3.468432
 H         1.663836         3.991478         1.137042
 H         2.162520         2.457157         1.321226
 H         0.018424         2.904969        -0.324566
