19
Iteration:  4504charge 0 multiplicity 1
 O         0.193982         0.066990         0.872177
 C        -0.605779         1.152463         0.807491
 C        -2.019355         1.216495         0.310914
 C        -1.726639         1.818760         1.736663
 C        -1.196260         3.245262         1.618148
 O        -0.566645         3.844761         2.730490
 C         0.768029         3.212788         2.802476
 C         1.234037         2.975796         1.310829
 C        -0.071614         2.580821         0.590243
 H         0.490343         0.008816         1.850860
 H        -2.099598         2.026368        -0.368515
 H        -2.652644         0.324879         0.229954
 H        -2.415791         1.347481         2.555142
 H        -1.859952         3.988283         1.223510
 H         1.471957         3.842340         3.401945
 H         0.782972         2.208317         3.416250
 H         1.837266         3.794307         1.010898
 H         2.044295         2.052292         1.180586
 H         0.025011         2.855776        -0.461865
