19
Iteration:  1434charge 0 multiplicity 1
 O         0.184457         0.083874         0.872042
 C        -0.631725         1.187114         0.854787
 C        -2.017317         1.161275         0.425476
 C        -1.610181         1.801973         1.886641
 C        -1.151164         3.268337         1.539414
 O        -0.531396         3.959465         2.560473
 C         0.674313         3.207590         2.793073
 C         1.263609         2.869020         1.375727
 C        -0.056329         2.632431         0.601910
 H        -0.275030        -0.700772         0.635636
 H        -2.382641         1.839536        -0.412805
 H        -2.616474         0.296481         0.524092
 H        -2.061964         1.358467         2.778885
 H        -2.007802         3.793263         1.154488
 H         1.342137         3.745197         3.429886
 H         0.404500         2.123388         3.167673
 H         1.838407         3.683789         0.935757
 H         1.986373         2.062552         1.411010
 H        -0.069985         3.047677        -0.462927
