19
Iteration:  2328charge 0 multiplicity 1
 O         0.167501         0.069203         0.896822
 C        -0.619488         1.158975         0.816190
 C        -2.116787         1.224089         0.356591
 C        -1.713407         1.690216         1.786641
 C        -1.173955         3.164833         1.571567
 O        -0.510870         3.921580         2.665602
 C         0.770025         3.426222         2.767925
 C         1.256582         2.830066         1.440736
 C        -0.029184         2.538572         0.599420
 H         0.568922         0.072499         0.038560
 H        -2.563214         2.039555        -0.280258
 H        -2.640973         0.279185         0.278048
 H        -2.309957         1.416947         2.708665
 H        -2.003984         3.847271         1.135776
 H         1.548901         4.265121         3.106496
 H         0.847210         2.704223         3.514343
 H         1.865413         3.599242         0.968576
 H         1.849211         1.893255         1.622248
 H         0.100209         3.095767        -0.348922
