19
Iteration:  1397charge 0 multiplicity 1
 O         0.116740         0.025164         0.947398
 C        -0.718594         1.171688         0.813245
 C        -2.112673         1.163450         0.442823
 C        -1.666651         1.838292         1.775282
 C        -1.112293         3.179332         1.470804
 O        -0.561608         3.787296         2.647172
 C         0.793669         3.329535         2.769067
 C         1.345207         3.014074         1.375104
 C        -0.001136         2.609054         0.630946
 H         0.154036        -0.390334         0.031789
 H        -2.423503         1.811971        -0.300752
 H        -2.641960         0.182521         0.685509
 H        -2.194093         1.477559         2.684478
 H        -1.804688         4.023843         1.077816
 H         1.206027         4.114805         3.431291
 H         0.713436         2.402523         3.565912
 H         1.691650         3.931879         0.795778
 H         2.212885         2.195029         1.392664
 H         0.127068         3.047301        -0.394806
