19
Iteration:  1625
 O         0.242211         0.166039         1.096291
 C        -0.657426         1.311082         0.798744
 C        -2.032761         1.129239         0.404441
 C        -1.755654         1.827231         1.730043
 C        -1.200299         3.233157         1.545217
 O        -0.485446         3.863260         2.631303
 C         0.771741         3.147011         2.775141
 C         1.206832         2.806439         1.342188
 C        -0.095600         2.664981         0.534572
 H         0.512376        -0.329556         0.247276
 H        -2.264646         1.866739        -0.447907
 H        -2.630774         0.267981         0.498871
 H        -1.975858         1.244654         2.620647
 H        -1.905749         3.961546         1.233644
 H         1.461612         3.864354         3.330436
 H         0.514444         2.210431         3.415104
 H         1.767040         3.568430         0.876682
 H         1.864705         1.974925         1.344532
 H        -0.038971         2.945415        -0.510392
