19
Iteration:  3935
 O         0.073448         0.021095         0.889965
 C        -0.630202         1.223805         0.820639
 C        -2.062189         1.208816         0.314084
 C        -1.708433         1.788634         1.726380
 C        -1.149317         3.223018         1.601615
 O        -0.524603         3.791608         2.701528
 C         0.813945         3.271499         2.778723
 C         1.245159         2.984268         1.359089
 C        -0.033431         2.597340         0.625321
 H         0.634791         0.108495         1.717776
 H        -2.461535         1.791516        -0.387153
 H        -2.452265         0.196192         0.101692
 H        -1.976274         1.188934         2.660020
 H        -1.750067         4.052129         1.309288
 H         1.284928         3.960105         3.418804
 H         0.814936         2.212228         3.226827
 H         1.425482         3.984313         0.861499
 H         2.148995         2.358288         1.185698
 H         0.091258         3.036899        -0.463230
