19
Iteration:  3823charge 0 multiplicity 1
 O         0.112336         0.054356         0.885904
 C        -0.651316         1.240917         0.867818
 C        -2.019566         1.241752         0.370666
 C        -1.710249         1.746030         1.774873
 C        -1.162338         3.218964         1.508101
 O        -0.512593         3.800731         2.690376
 C         0.703902         3.186438         2.801978
 C         1.308983         2.953826         1.299165
 C        -0.095094         2.669683         0.632457
 H         0.874737         0.148313         1.442365
 H        -2.340879         1.934491        -0.416746
 H        -2.436286         0.264287         0.339980
 H        -1.969963         1.309764         2.691309
 H        -1.835311         3.945775         1.065259
 H         1.304702         3.962957         3.290730
 H         0.702773         2.177945         3.341171
 H         1.866661         3.885321         1.229253
 H         2.040757         2.086626         1.072274
 H        -0.048833         2.974744        -0.530913
