19
Iteration:  2376
 O         0.015239         0.013556         0.830087
 C        -0.578029         1.235428         0.752184
 C        -2.067180         1.134983         0.547141
 C        -1.689207         1.752622         1.810325
 C        -1.095925         3.276184         1.508516
 O        -0.557477         3.934449         2.573160
 C         0.704417         3.182889         2.822863
 C         1.265487         2.970218         1.417921
 C         0.042459         2.624855         0.617356
 H         1.003825         0.180489         0.794968
 H        -2.644048         1.631569        -0.356506
 H        -2.436346         0.050470         0.666217
 H        -1.805119         1.262477         2.746570
 H        -1.885689         3.797651         1.019662
 H         1.381645         3.839673         3.444022
 H         0.476593         2.214232         3.355549
 H         1.614917         3.980987         0.974251
 H         2.071508         2.241143         1.456260
 H         0.159819         2.975032        -0.466128
