19
Iteration:  4144charge 0 multiplicity 1
 O         0.135595         0.071708         0.864618
 C        -0.667264         1.262620         0.856249
 C        -2.011886         1.256966         0.355774
 C        -1.776933         1.733090         1.760932
 C        -1.164417         3.203773         1.539847
 O        -0.599159         3.770333         2.687602
 C         0.842521         3.160675         2.771524
 C         1.300155         2.999695         1.327728
 C        -0.018608         2.661754         0.651517
 H         0.433711        -0.006934         1.764245
 H        -2.382978         1.755138        -0.494090
 H        -2.306555         0.248352         0.345214
 H        -2.285330         1.371393         2.708021
 H        -1.756385         3.997894         1.157404
 H         1.363148         3.977241         3.178930
 H         0.846280         2.322271         3.431145
 H         1.690265         4.018048         0.935197
 H         2.017373         2.186593         1.187031
 H         0.003598         2.777533        -0.407937
