19
Iteration:  4474
 O         0.088999         0.102539         0.925738
 C        -0.646929         1.267236         0.779372
 C        -2.007251         1.125153         0.430816
 C        -1.758836         1.818922         1.727198
 C        -1.111177         3.212706         1.508587
 O        -0.537818         3.689808         2.663082
 C         0.792495         3.149180         2.812457
 C         1.251394         3.042501         1.390514
 C        -0.053256         2.675369         0.550026
 H         0.867769         0.293691         1.450275
 H        -2.408912         1.882643        -0.457110
 H        -2.284935         0.106938         0.307942
 H        -2.332757         1.581385         2.689818
 H        -1.683357         4.064781         1.032439
 H         1.224830         3.946748         3.591929
 H         0.742395         2.249891         3.388350
 H         1.892260         3.904333         1.162074
 H         1.846717         2.214652         1.302258
 H        -0.032516         3.042411        -0.473999
