19
Iteration:   137charge 0 multiplicity 1
 O         0.320073         0.215194         0.995267
 C        -0.621861         1.227739         0.803838
 C        -2.087892         1.140167         0.511607
 C        -1.755962         1.926008         1.746514
 C        -1.232809         3.315998         1.421147
 O        -0.482146         3.838931         2.579472
 C         0.677848         3.054080         2.776063
 C         1.270281         2.876226         1.369819
 C        -0.025924         2.579187         0.600049
 H        -0.136386        -0.632110         1.313818
 H        -2.598316         1.585705        -0.368756
 H        -2.527657         0.084023         0.699228
 H        -2.206961         1.746797         2.775317
 H        -1.766935         4.202675         0.949363
 H         1.338864         3.451736         3.524202
 H         0.519097         1.988143         3.076940
 H         1.668973         3.892103         0.995264
 H         1.817163         1.881049         1.361107
 H         0.064765         2.977548        -0.467296
