19
Iteration:  3342charge 0 multiplicity 1
 O         0.230763         0.106219         0.943157
 C        -0.700368         1.249544         0.818105
 C        -2.090462         1.124495         0.382780
 C        -1.708713         1.928656         1.707984
 C        -1.155218         3.312191         1.560709
 O        -0.546379         3.772237         2.698307
 C         0.716758         3.098706         2.799783
 C         1.236997         2.866249         1.320578
 C        -0.000563         2.675567         0.576088
 H         1.042601         0.470939         1.272194
 H        -2.459103         1.480011        -0.577628
 H        -2.476740         0.111817         0.727774
 H        -2.266056         1.404628         2.473898
 H        -1.810231         4.164000         1.183717
 H         1.347065         3.738433         3.541812
 H         0.710562         2.206317         3.357810
 H         1.679668         3.802735         0.804872
 H         1.858117         1.998455         1.223215
 H         0.093224         2.968181        -0.456763
