19
Iteration:  1033charge 0 multiplicity 1
 O         0.257441         0.153962         1.098473
 C        -0.706054         1.239503         0.888534
 C        -2.052273         1.238862         0.355001
 C        -1.769777         1.856405         1.690503
 C        -1.140006         3.271862         1.511502
 O        -0.492184         3.762618         2.694312
 C         0.804975         3.139741         2.752284
 C         1.202080         2.939208         1.295968
 C        -0.075300         2.548798         0.568317
 H        -0.186050        -0.590242         0.587455
 H        -2.263086         1.763001        -0.565187
 H        -2.554908         0.232967         0.489851
 H        -2.133841         1.590801         2.674359
 H        -1.928583         3.955869         1.155847
 H         1.334252         3.975800         3.259516
 H         1.035622         2.238923         3.359360
 H         1.718439         3.780007         0.746103
 H         1.965432         2.198656         1.248047
 H        -0.137371         2.845175        -0.568146
