19
Iteration:  3265
 O         0.046755        -0.044294         0.858652
 C        -0.605429         1.229724         0.845301
 C        -2.072746         1.198230         0.350236
 C        -1.680480         1.807006         1.687908
 C        -1.187557         3.254685         1.533532
 O        -0.544540         3.715854         2.686340
 C         0.802036         3.299806         2.823790
 C         1.294843         3.029031         1.381400
 C         0.029950         2.661985         0.590945
 H         0.440975        -0.264389         1.760561
 H        -2.588086         1.752531        -0.409971
 H        -2.391173         0.129439         0.542200
 H        -2.023676         1.507896         2.747125
 H        -1.879741         4.037000         1.296986
 H         1.223732         4.212089         3.345143
 H         0.802328         2.395749         3.456657
 H         1.613601         4.041558         0.967224
 H         2.103160         2.302190         1.280806
 H        -0.052901         2.833791        -0.465585
