19
Iteration:  2765
 O         0.112867         0.072865         1.000991
 C        -0.607608         1.283939         0.864894
 C        -1.972707         1.104054         0.383773
 C        -1.673295         1.856143         1.711109
 C        -1.167943         3.255866         1.491961
 O        -0.458146         3.781515         2.668563
 C         0.750356         3.015181         2.747561
 C         1.204704         3.036338         1.336829
 C        -0.123404         2.751847         0.561356
 H         0.194906         0.062235         1.967381
 H        -2.146848         1.610824        -0.608417
 H        -2.577584         0.055813         0.639698
 H        -2.124106         1.634137         2.708335
 H        -1.874819         3.996237         1.131277
 H         1.394046         3.535778         3.510743
 H         0.475553         1.934311         3.045625
 H         1.733876         3.972405         0.897302
 H         1.935609         2.215992         1.128749
 H        -0.151361         3.138478        -0.498899
