19
Iteration:  2378charge 0 multiplicity 1
 O         0.016666         0.010887         0.831012
 C        -0.598237         1.238723         0.749958
 C        -2.067045         1.137498         0.536646
 C        -1.681160         1.760797         1.813191
 C        -1.096058         3.274254         1.501993
 O        -0.563602         3.936959         2.572518
 C         0.715532         3.186462         2.835620
 C         1.274285         2.976908         1.405231
 C         0.038955         2.608146         0.617420
 H         1.008594         0.206090         0.858637
 H        -2.632535         1.587932        -0.310827
 H        -2.376327         0.023864         0.708782
 H        -1.747698         1.273997         2.723629
 H        -1.878346         3.848198         1.034326
 H         1.315655         3.791564         3.399477
 H         0.435236         2.125615         3.336242
 H         1.574510         3.972338         1.025932
 H         2.066845         2.223419         1.421708
 H         0.195066         3.056404        -0.373926
