19
Iteration:  2858
 O         0.050181        -0.074808         0.801791
 C        -0.648475         1.189251         0.820571
 C        -2.083388         1.150328         0.334850
 C        -1.745971         1.751167         1.742442
 C        -1.194331         3.240303         1.562520
 O        -0.513527         3.899327         2.658047
 C         0.838252         3.328202         2.882105
 C         1.316236         2.967853         1.428312
 C        -0.035194         2.661042         0.615586
 H         0.932547        -0.276426         1.223943
 H        -2.398182         1.557419        -0.569722
 H        -2.468629         0.191845         0.481992
 H        -2.084729         1.313998         2.702709
 H        -1.879936         4.059004         1.084380
 H         1.327115         4.260902         3.217591
 H         1.011311         2.484122         3.535697
 H         1.648865         3.927124         1.083316
 H         2.225255         2.301147         1.449223
 H        -0.021443         2.992473        -0.401060
