19
Iteration:  1393
 O         0.093969         0.015843         0.966709
 C        -0.730004         1.176571         0.784697
 C        -2.118975         1.128345         0.436774
 C        -1.672557         1.792207         1.739483
 C        -1.132649         3.201603         1.484842
 O        -0.532358         3.801304         2.677644
 C         0.802588         3.349569         2.797642
 C         1.357832         3.037479         1.375864
 C        -0.013870         2.607534         0.634130
 H         0.216594        -0.311232         0.047710
 H        -2.448463         1.867866        -0.366184
 H        -2.520262         0.114051         0.641641
 H        -2.198095         1.574404         2.610094
 H        -1.697723         3.982936         1.033900
 H         1.252961         4.167485         3.493048
 H         0.763969         2.454636         3.308222
 H         1.873202         3.856467         0.772971
 H         2.045581         2.249988         1.298268
 H         0.069232         2.910474        -0.376181
