19
Iteration:  1441charge 0 multiplicity 1
 O         0.210940         0.097594         0.876746
 C        -0.640664         1.225752         0.814951
 C        -2.052630         1.138414         0.426319
 C        -1.623502         1.772896         1.808468
 C        -1.176110         3.231321         1.622654
 O        -0.501923         3.999613         2.540972
 C         0.662202         3.177200         2.745029
 C         1.278370         2.861701         1.416546
 C        -0.051384         2.650636         0.623436
 H        -0.377987        -0.707179         0.759925
 H        -2.229868         1.704973        -0.438593
 H        -2.629683         0.297702         0.830365
 H        -2.052342         1.381424         2.812575
 H        -1.909579         3.910539         1.012948
 H         1.335283         3.739665         3.355746
 H         0.365227         2.196390         3.287101
 H         1.898784         3.724711         1.102899
 H         2.039962         1.937346         1.287127
 H        -0.277678         3.040934        -0.379674
