19
Iteration:  3930
 O         0.074118         0.022794         0.910402
 C        -0.598376         1.233556         0.779616
 C        -2.044329         1.208907         0.345044
 C        -1.670464         1.816797         1.706785
 C        -1.188732         3.188201         1.615306
 O        -0.495867         3.800541         2.703230
 C         0.764855         3.231069         2.784237
 C         1.242777         3.030381         1.325364
 C        -0.041062         2.573232         0.628490
 H         0.590383         0.055236         1.701789
 H        -2.451006         1.962310        -0.530454
 H        -2.550010         0.198608         0.191506
 H        -2.029682         1.356807         2.581917
 H        -1.959426         3.968942         1.312887
 H         1.416780         3.925330         3.419131
 H         0.788176         2.240098         3.228575
 H         1.598170         3.960722         0.907776
 H         2.067090         2.261780         1.292483
 H        -0.047567         2.972077        -0.337108
