19
Iteration:   872charge 0 multiplicity 1
 O         0.265954         0.229126         0.890477
 C        -0.597704         1.249819         0.907811
 C        -2.144120         1.170079         0.607652
 C        -1.696038         1.898246         1.863285
 C        -1.181357         3.251345         1.373552
 O        -0.509708         3.849615         2.518057
 C         0.680325         3.033780         2.810185
 C         1.229688         2.849640         1.445870
 C         0.016204         2.634273         0.491064
 H        -0.230768        -0.557488         0.462494
 H        -2.644525         1.614172        -0.288433
 H        -2.543260         0.041565         0.674159
 H        -2.063247         1.948967         2.806346
 H        -1.867890         4.050732         0.940855
 H         1.406174         3.551304         3.441959
 H         0.469565         1.988974         3.331267
 H         1.900063         3.777657         1.202724
 H         1.961447         1.996274         1.287758
 H         0.088779         2.758793        -0.583596
