19
Iteration:  2755
 O         0.113621         0.109367         1.042479
 C        -0.604438         1.252047         0.841243
 C        -1.982368         1.208124         0.418410
 C        -1.734204         1.864334         1.724049
 C        -1.157060         3.218599         1.509565
 O        -0.511730         3.750843         2.631970
 C         0.770650         3.040817         2.741420
 C         1.250632         3.026795         1.331884
 C        -0.101223         2.706314         0.510911
 H         0.558822         0.034406         1.874523
 H        -2.440925         1.817011        -0.428434
 H        -2.365788         0.015963         0.454909
 H        -2.177522         1.279171         2.560853
 H        -1.823571         4.069030         1.168284
 H         1.569148         3.425183         3.497801
 H         0.589936         1.962313         3.073346
 H         1.689478         4.130616         1.189911
 H         2.009681         2.196451         1.263294
 H        -0.291339         2.970717        -0.572036
