19
Iteration:  1689
 O         0.096726         0.044353         0.850275
 C        -0.635815         1.162910         0.869749
 C        -2.079140         1.028683         0.470608
 C        -1.692748         1.823967         1.760318
 C        -1.094370         3.285007         1.431550
 O        -0.546459         3.892708         2.687566
 C         0.716157         3.251922         2.817628
 C         1.308383         2.995499         1.400358
 C         0.083081         2.599501         0.602388
 H        -0.502288        -0.618518         0.400139
 H        -2.570853         1.548496        -0.412793
 H        -2.587073         0.132487         0.510643
 H        -2.248251         1.705745         2.663084
 H        -1.847335         3.976047         1.122271
 H         1.391199         3.984094         3.379220
 H         0.689127         2.342503         3.263229
 H         1.538707         4.083631         1.032523
 H         2.203729         2.464708         1.395614
 H         0.121419         3.082060        -0.381411
