19
Iteration:  2929
 O         0.109271         0.102293         0.837117
 C        -0.683589         1.284488         0.785475
 C        -2.045244         1.121515         0.435316
 C        -1.672956         1.773938         1.758006
 C        -1.129402         3.202086         1.520078
 O        -0.463958         3.914515         2.587273
 C         0.705066         3.203487         2.848802
 C         1.244801         2.842476         1.421151
 C        -0.065683         2.673642         0.627784
 H         0.777462         0.231675         1.559832
 H        -2.469651         1.462222        -0.628121
 H        -2.447145         0.131329         0.611852
 H        -1.988671         1.339957         2.680798
 H        -1.944354         3.788975         1.106824
 H         1.473185         3.708455         3.466050
 H         0.551843         2.235374         3.436802
 H         1.798098         3.805129         1.172520
 H         2.000054         2.099213         1.236064
 H        -0.061661         3.179482        -0.393717
