19
Iteration:  3162charge 0 multiplicity 1
 O         0.146833        -0.005770         0.743639
 C        -0.604165         1.199932         0.756338
 C        -2.046625         1.207665         0.519143
 C        -1.679851         1.805893         1.766830
 C        -1.127672         3.248607         1.482783
 O        -0.506039         3.891503         2.641883
 C         0.672330         3.207065         2.850342
 C         1.208445         2.983272         1.425574
 C        -0.017908         2.604632         0.597547
 H         0.427239        -0.083896         1.642525
 H        -2.550527         1.651559        -0.328353
 H        -2.338296         0.095204         0.644114
 H        -2.018717         1.620466         2.753086
 H        -1.835345         4.022594         1.004637
 H         1.302676         3.723869         3.539956
 H         0.447468         2.278449         3.439555
 H         1.779678         3.726337         0.964182
 H         1.954680         2.177167         1.591453
 H        -0.022377         2.998517        -0.408448
