19
Iteration:  2543
 O         0.076907         0.044671         1.108621
 C        -0.602296         1.221587         0.770720
 C        -2.044192         1.183976         0.381973
 C        -1.711829         1.695211         1.765994
 C        -1.177324         3.260445         1.589611
 O        -0.498653         3.885135         2.668502
 C         0.821084         3.162198         2.724523
 C         1.244666         2.989177         1.261038
 C        -0.069610         2.685550         0.604037
 H         0.728279        -0.048141         0.388407
 H        -2.428307         1.861355        -0.473314
 H        -2.537122         0.129304         0.331261
 H        -2.205981         1.229198         2.702323
 H        -1.809863         4.045744         1.216812
 H         1.400430         3.764524         3.296831
 H         0.681913         2.269940         3.193329
 H         1.575254         3.910436         0.814671
 H         2.038327         2.155242         1.198701
 H         0.029629         2.895183        -0.459640
