19
Iteration:  4920charge 0 multiplicity 1
 O         0.102156         0.046146         0.891665
 C        -0.597038         1.292432         0.769671
 C        -1.993459         1.211053         0.344148
 C        -1.728470         1.768042         1.687453
 C        -1.203256         3.206786         1.609384
 O        -0.531924         3.800982         2.656724
 C         0.762140         3.187954         2.757814
 C         1.304012         2.901578         1.421651
 C        -0.059118         2.696566         0.627200
 H         0.468454        -0.018137         1.822047
 H        -2.324003         1.947525        -0.506430
 H        -2.362004         0.175670         0.367407
 H        -1.928247         1.288416         2.571475
 H        -2.024482         3.943295         1.296605
 H         1.306358         4.077260         3.362022
 H         0.593623         2.403756         3.521829
 H         1.775021         3.771370         0.915369
 H         1.981896         1.958312         1.476910
 H        -0.176443         3.188058        -0.410144
