19
Iteration:  2533
 O         0.118588         0.028367         1.099572
 C        -0.636295         1.232647         0.879462
 C        -2.095351         1.170956         0.332593
 C        -1.696511         1.803285         1.680160
 C        -1.202875         3.277179         1.606913
 O        -0.454641         3.821912         2.677168
 C         0.795203         3.210779         2.754438
 C         1.262361         3.023775         1.227449
 C        -0.060347         2.577846         0.634140
 H         0.550155        -0.307825         0.326040
 H        -2.380789         1.908495        -0.497315
 H        -2.501655         0.101258         0.328146
 H        -2.084700         1.276076         2.646713
 H        -1.976274         3.943622         1.195542
 H         1.370199         3.777050         3.339303
 H         0.687675         2.272209         3.151751
 H         1.531564         3.993651         0.853958
 H         2.224876         2.407288         1.060723
 H        -0.184895         2.931709        -0.395068
