19
Iteration:  3183charge 0 multiplicity 1
 O         0.063916         0.080512         0.803119
 C        -0.614268         1.272066         0.837163
 C        -2.070355         1.151272         0.428015
 C        -1.705845         1.732033         1.759366
 C        -1.199437         3.228038         1.509467
 O        -0.585745         3.838998         2.624288
 C         0.768659         3.272851         2.845836
 C         1.335612         2.858516         1.435294
 C         0.016185         2.682963         0.602421
 H         0.835669         0.014378         1.410667
 H        -2.349496         1.699863        -0.458212
 H        -2.629760         0.145332         0.555965
 H        -2.057059         1.240564         2.635902
 H        -1.940820         4.039651         1.040293
 H         1.416963         4.032625         3.181438
 H         0.930608         2.502477         3.605611
 H         1.910939         3.726167         1.138339
 H         2.055245         2.007914         1.304154
 H         0.054155         2.972086        -0.462788
