19
Iteration:  2775charge 0 multiplicity 1
 O         0.146821         0.071292         1.007235
 C        -0.583505         1.247452         0.823043
 C        -2.013595         1.096165         0.344808
 C        -1.711966         1.866160         1.729971
 C        -1.222954         3.357353         1.551249
 O        -0.467903         3.813308         2.711795
 C         0.696091         3.041346         2.767861
 C         1.224361         2.970415         1.231009
 C        -0.008283         2.719942         0.564468
 H         0.265678        -0.261490         1.939688
 H        -2.524340         1.520942        -0.565957
 H        -2.467621        -0.030891         0.589527
 H        -2.135262         1.528570         2.715641
 H        -1.929156         4.084899         1.259282
 H         1.321986         3.579565         3.483595
 H         0.634556         2.006133         3.284205
 H         1.577803         4.029549         1.019201
 H         1.948194         2.202756         0.918542
 H         0.140279         3.070490        -0.493535
