19
Iteration:  1098
 O         0.251978         0.256473         0.971457
 C        -0.616591         1.226542         0.789695
 C        -2.115158         1.230191         0.503762
 C        -1.629176         1.840679         1.767389
 C        -1.102016         3.201657         1.465499
 O        -0.582876         3.853440         2.659716
 C         0.713436         3.061477         2.813025
 C         1.250830         2.860137         1.307825
 C        -0.066760         2.606866         0.501203
 H        -0.175857        -0.525239         1.214053
 H        -2.530315         1.655748        -0.375824
 H        -2.548480         0.212695         0.650510
 H        -2.022233         1.619584         2.796693
 H        -1.801871         3.930167         1.058434
 H         1.423719         3.678752         3.457202
 H         0.347550         2.156766         3.435748
 H         1.755334         3.855167         1.108465
 H         1.882638         2.016392         1.241688
 H         0.009039         2.786675        -0.662671
