19
Iteration:  2852
 O         0.035785        -0.079457         0.805376
 C        -0.634994         1.200322         0.836356
 C        -2.046325         1.116865         0.313326
 C        -1.692447         1.763601         1.708712
 C        -1.122501         3.290715         1.595664
 O        -0.526291         3.877216         2.679336
 C         0.824853         3.357234         2.882356
 C         1.308193         2.961830         1.385778
 C        -0.082934         2.632403         0.644289
 H         0.861245         0.044486         1.259674
 H        -2.521735         1.642207        -0.599634
 H        -2.518122         0.062238         0.557143
 H        -2.252939         1.360835         2.562786
 H        -1.774481         3.964037         1.129827
 H         1.302437         4.267236         3.229066
 H         0.815115         2.414814         3.513926
 H         1.700848         3.919733         0.958854
 H         2.004025         2.128730         1.453361
 H        -0.164720         3.017085        -0.414552
