19
Iteration:  2145charge 0 multiplicity 1
 O         0.144419         0.083938         1.027130
 C        -0.640743         1.202945         0.875830
 C        -2.043063         1.149145         0.289150
 C        -1.699448         1.846276         1.792228
 C        -1.180823         3.298905         1.578757
 O        -0.486197         3.847434         2.681986
 C         0.822649         3.180812         2.746734
 C         1.209987         2.921484         1.308523
 C        -0.133834         2.625467         0.592878
 H         0.931726         0.201041         0.457895
 H        -2.304584         1.677048        -0.620715
 H        -2.413544         0.040356         0.407689
 H        -2.219397         1.339302         2.535135
 H        -1.937084         3.886647         1.068695
 H         1.481452         3.755304         3.354723
 H         0.711372         2.097201         3.423968
 H         1.624171         3.799192         0.656926
 H         1.949026         2.121239         1.427541
 H        -0.121213         2.950173        -0.450182
