19
Iteration:  4340charge 0 multiplicity 1
 O         0.056107         0.069732         0.764978
 C        -0.597596         1.227305         0.934306
 C        -2.037690         1.193670         0.344814
 C        -1.725563         1.775021         1.775791
 C        -1.171493         3.227443         1.551297
 O        -0.617372         3.805852         2.683653
 C         0.787012         3.210315         2.818723
 C         1.310088         2.991283         1.350091
 C         0.052244         2.620640         0.638022
 H         0.846881         0.125102         1.309037
 H        -2.383151         1.757631        -0.536392
 H        -2.460408         0.049984         0.482702
 H        -2.254625         1.394252         2.574994
 H        -1.890460         3.793483         0.990533
 H         1.295073         4.046529         3.339338
 H         0.712813         2.430479         3.496847
 H         1.808479         3.790615         1.000044
 H         2.060577         2.233464         1.409942
 H         0.087095         2.885534        -0.398701
