19
Iteration:  1059charge 0 multiplicity 1
 O         0.254212         0.217334         1.039155
 C        -0.653016         1.283657         0.840113
 C        -2.027840         1.086637         0.476222
 C        -1.804766         1.850370         1.733077
 C        -1.150543         3.268755         1.487525
 O        -0.448842         3.851673         2.596058
 C         0.745999         2.960398         2.796600
 C         1.270121         2.959200         1.324723
 C        -0.071426         2.673688         0.544362
 H        -0.364395        -0.575378         0.956123
 H        -2.554788         1.627975        -0.442253
 H        -2.501346         0.190127         0.787744
 H        -2.545535         1.594210         2.533813
 H        -1.873200         4.019060         1.005952
 H         1.240650         3.486434         3.589930
 H         0.610865         1.946394         3.142236
 H         1.801521         3.840873         0.939230
 H         2.067481         2.180960         1.122611
 H        -0.202905         3.068141        -0.421365
