19
Iteration:  3017charge 0 multiplicity 1
 O         0.043265        -0.032251         0.982229
 C        -0.637910         1.156635         0.783419
 C        -2.032497         1.161065         0.296958
 C        -1.690496         1.708976         1.753730
 C        -1.164492         3.251908         1.521521
 O        -0.499593         3.801331         2.702680
 C         0.894453         3.200933         2.776593
 C         1.264365         3.097789         1.332831
 C        -0.030705         2.729998         0.623449
 H         0.060022        -0.002396         1.990695
 H        -2.343009         2.028245        -0.528120
 H        -2.686884         0.317708         0.356056
 H        -2.385399         1.190636         2.379326
 H        -1.894818         4.104475         1.128019
 H         1.405193         3.877329         3.512931
 H         0.740909         2.235689         3.351901
 H         1.485435         4.183134         0.992755
 H         2.147749         2.537101         1.078375
 H        -0.202424         2.991383        -0.476860
