19
Iteration:   735
 O         0.002493         0.047411         1.133919
 C        -0.662532         1.257311         0.820049
 C        -2.100902         1.138321         0.314079
 C        -1.699086         1.787509         1.725735
 C        -1.188016         3.170652         1.550882
 O        -0.521609         3.802905         2.633000
 C         0.884219         3.315729         2.727870
 C         1.356914         2.970327         1.311756
 C        -0.021134         2.676539         0.608789
 H         0.424468        -0.358087         0.413760
 H        -2.503887         1.743116        -0.479352
 H        -2.481287         0.160601         0.399792
 H        -2.019951         1.291506         2.778267
 H        -1.891005         3.982663         1.176743
 H         1.499302         3.935284         3.425614
 H         0.826917         2.304377         3.273357
 H         1.916141         3.812776         0.976100
 H         2.101943         2.154699         1.241572
 H        -0.152926         3.038626        -0.372922
