19
Iteration:   951charge 0 multiplicity 1
 O         0.062798        -0.067524         0.938226
 C        -0.656511         1.142388         0.908482
 C        -2.096971         1.298927         0.373852
 C        -1.733696         1.744953         1.772124
 C        -1.105333         3.197473         1.507081
 O        -0.563020         3.796131         2.678461
 C         0.837964         3.482374         2.770312
 C         1.295334         2.963029         1.344676
 C         0.020732         2.546804         0.638890
 H         0.567415        -0.006958         0.037862
 H        -2.476379         2.088920        -0.401546
 H        -2.715993         0.466636         0.406360
 H        -2.358979         1.465766         2.741740
 H        -1.901207         3.902496         1.178066
 H         1.358646         4.399616         3.174443
 H         1.101750         2.542651         3.469653
 H         1.790813         3.714903         0.688143
 H         2.012958         1.999598         1.347812
 H         0.135444         2.714140        -0.478501
