19
Iteration:  2584charge 0 multiplicity 1
 O         0.238216         0.159021         0.929521
 C        -0.673038         1.225118         0.761882
 C        -2.133992         1.165004         0.529954
 C        -1.703206         1.831368         1.815877
 C        -1.157380         3.265524         1.444296
 O        -0.581158         3.880496         2.674650
 C         0.769465         3.198934         2.749435
 C         1.240245         2.831344         1.411898
 C         0.003443         2.570647         0.552988
 H         0.531157        -0.149567         0.067705
 H        -2.674485         1.800963        -0.167091
 H        -2.560557         0.096941         0.738544
 H        -1.953200         1.342844         2.795505
 H        -1.877323         3.902035         0.957866
 H         1.551370         3.948439         3.201976
 H         0.607248         2.212811         3.400384
 H         1.852236         3.661034         1.031775
 H         1.931870         1.985808         1.381962
 H         0.183261         2.983210        -0.460992
