19
Iteration:  4331
 O         0.104615         0.013373         0.753011
 C        -0.645801         1.209404         0.887785
 C        -1.989706         1.207142         0.389612
 C        -1.753126         1.767929         1.761028
 C        -1.240505         3.217319         1.550121
 O        -0.527334         3.819277         2.652336
 C         0.717142         3.274622         2.819219
 C         1.298728         2.967857         1.413863
 C         0.041621         2.615040         0.671154
 H         0.850381         0.188803         1.324173
 H        -2.314399         1.897506        -0.413543
 H        -2.554097         0.169133         0.256075
 H        -2.243547         1.476446         2.624843
 H        -1.916476         4.023394         1.158721
 H         1.408757         3.989242         3.422140
 H         0.815561         2.272639         3.324269
 H         1.632027         3.933469         0.917647
 H         1.989079         2.244213         1.146542
 H         0.203753         2.831240        -0.355649
