19
Iteration:  2836charge 0 multiplicity 1
 O         0.072569         0.045469         0.871012
 C        -0.625496         1.177560         0.755398
 C        -1.997189         1.178744         0.374625
 C        -1.753262         1.825734         1.755351
 C        -1.178769         3.131141         1.533704
 O        -0.534389         3.846651         2.763817
 C         0.795347         3.350546         2.761272
 C         1.196616         2.928959         1.373615
 C         0.007051         2.630713         0.613398
 H         0.853754         0.007983         1.445154
 H        -2.250176         1.783318        -0.459648
 H        -2.434301         0.264626         0.392683
 H        -2.233144         1.475412         2.664481
 H        -1.839821         4.001804         1.141969
 H         1.540542         4.018685         3.263854
 H         0.852616         2.390686         3.287801
 H         1.851767         3.577201         0.814500
 H         1.831003         2.012131         1.482312
 H         0.129481         2.978231        -0.392816
