19
Iteration:  3759
 O         0.080277         0.008486         0.783224
 C        -0.597284         1.254792         0.809299
 C        -2.062266         1.227964         0.421474
 C        -1.722598         1.807988         1.800780
 C        -1.192434         3.158590         1.516882
 O        -0.538509         3.774898         2.686103
 C         0.723518         3.281681         2.812537
 C         1.337009         2.975202         1.394331
 C         0.022317         2.645670         0.591069
 H         0.469805        -0.076093         1.632736
 H        -2.453635         1.844432        -0.323353
 H        -2.303723         0.213594         0.482303
 H        -2.259602         1.495839         2.684869
 H        -1.958532         3.864807         1.209357
 H         1.367693         4.080382         3.187492
 H         0.735484         2.442808         3.536950
 H         1.840086         3.831763         0.890805
 H         2.009038         2.069838         1.344087
 H         0.035951         2.937608        -0.510973
