19
Iteration:  1855
 O         0.214312         0.092833         1.030215
 C        -0.647034         1.247123         0.890623
 C        -2.029443         1.192387         0.405702
 C        -1.734220         1.855522         1.695638
 C        -1.189074         3.257096         1.516220
 O        -0.565158         3.748129         2.698464
 C         0.784984         3.187528         2.785731
 C         1.338658         2.952254         1.293577
 C        -0.040294         2.646321         0.545753
 H        -0.152593        -0.672841         0.474787
 H        -2.413000         1.753183        -0.444847
 H        -2.627136         0.168534         0.444863
 H        -2.287672         1.556137         2.601897
 H        -1.918196         4.020309         1.298943
 H         1.101033         3.975909         3.426938
 H         0.696755         2.232804         3.326456
 H         1.882618         3.815931         0.759550
 H         1.937111         2.020043         1.109094
 H        -0.146788         3.083751        -0.440551
