19
Iteration:  2945charge 0 multiplicity 1
 O         0.187485         0.159812         0.888612
 C        -0.644011         1.252123         0.802101
 C        -2.151998         1.059401         0.385464
 C        -1.737462         1.809337         1.743337
 C        -1.221560         3.292497         1.548412
 O        -0.522369         3.910599         2.641992
 C         0.797983         3.098160         2.823841
 C         1.276324         2.866101         1.415515
 C        -0.002320         2.628153         0.545669
 H         1.058957         0.452783         1.322648
 H        -2.624894         1.716236        -0.198918
 H        -2.626595         0.029830         0.465637
 H        -2.107606         1.352604         2.714694
 H        -1.775481         4.151057         1.130628
 H         1.370529         3.847682         3.356032
 H         0.536706         2.270652         3.431545
 H         1.803381         3.630278         0.904464
 H         1.929469         1.941500         1.472494
 H         0.239781         2.880620        -0.460109
