19
Iteration:  1983charge 0 multiplicity 1
 O         0.101110         0.100953         0.935682
 C        -0.593507         1.275791         0.864926
 C        -2.058004         1.095665         0.496108
 C        -1.658537         1.882055         1.745828
 C        -1.154545         3.275673         1.495574
 O        -0.545522         3.818291         2.625141
 C         0.774089         3.127283         2.790334
 C         1.220525         2.929878         1.387437
 C         0.022919         2.625760         0.517780
 H        -0.112338        -0.300570         0.110450
 H        -2.327085         1.543368        -0.412163
 H        -2.423446         0.046055         0.841969
 H        -2.046657         1.671067         2.732225
 H        -1.967005         4.019353         1.165208
 H         1.446622         3.927139         3.405458
 H         0.409898         2.305557         3.469710
 H         1.645619         3.929121         1.054199
 H         2.031200         2.245323         1.490906
 H         0.073994         2.827679        -0.599446
