19
Iteration:  4594charge 0 multiplicity 1
 O         0.124502         0.104496         0.789825
 C        -0.627788         1.222170         0.867068
 C        -2.053220         1.149563         0.394482
 C        -1.780711         1.793942         1.722735
 C        -1.127000         3.165881         1.530580
 O        -0.486627         3.882322         2.638561
 C         0.672158         3.183785         2.839342
 C         1.245800         2.995548         1.415308
 C         0.015976         2.598873         0.646764
 H         1.036685         0.221745         1.157854
 H        -2.407457         1.815478        -0.484619
 H        -2.376837         0.140498         0.447650
 H        -2.159788         1.551679         2.674276
 H        -1.877758         3.897859         1.188920
 H         1.451915         3.696027         3.541668
 H         0.442477         2.279710         3.426173
 H         1.774578         3.870682         0.926299
 H         2.017772         2.158555         1.495546
 H        -0.001700         2.728764        -0.422629
