19
Iteration:  2101
 O         0.092486         0.054732         1.050695
 C        -0.624252         1.196077         0.797858
 C        -2.150225         1.253071         0.390178
 C        -1.656479         1.741813         1.734554
 C        -1.119455         3.181781         1.470975
 O        -0.564021         3.764322         2.655889
 C         0.803028         3.304537         2.848622
 C         1.318007         3.059583         1.340275
 C        -0.007795         2.584466         0.586240
 H         0.185584        -0.338016         0.144477
 H        -2.555121         1.926493        -0.330731
 H        -2.686174         0.220721         0.598782
 H        -1.960550         1.357608         2.663211
 H        -1.857719         3.938485         1.163689
 H         1.405885         3.961502         3.395807
 H         0.867687         2.209138         3.268121
 H         1.610726         4.104496         0.946669
 H         2.065257         2.294648         1.108993
 H        -0.032078         2.827861        -0.473681
