19
Iteration:  3756
 O         0.085253         0.009636         0.784581
 C        -0.623371         1.281562         0.815155
 C        -2.048410         1.222826         0.414327
 C        -1.728127         1.795987         1.812706
 C        -1.172622         3.170019         1.518339
 O        -0.543675         3.768832         2.679112
 C         0.696339         3.290354         2.842212
 C         1.344177         2.956897         1.376907
 C         0.020402         2.634517         0.582792
 H         0.598204        -0.060429         1.667130
 H        -2.458985         1.902706        -0.390082
 H        -2.362205         0.222878         0.604984
 H        -2.246484         1.378681         2.622902
 H        -1.903637         3.933708         1.204075
 H         1.452789         4.101988         3.130507
 H         0.758399         2.387701         3.555738
 H         1.811040         3.800837         0.826851
 H         2.101936         2.064464         1.391491
 H        -0.028659         3.047206        -0.581322
