19
Iteration:  2603
 O         0.241666         0.117394         0.793433
 C        -0.641858         1.190347         0.867812
 C        -2.113983         1.119631         0.534737
 C        -1.698173         1.822764         1.784300
 C        -1.122314         3.259824         1.511562
 O        -0.486765         3.875978         2.551191
 C         0.678453         3.248194         2.891657
 C         1.258742         2.867307         1.426485
 C        -0.054196         2.637057         0.585140
 H        -0.147992        -0.543303         0.251632
 H        -2.510243         1.543300        -0.321406
 H        -2.493087         0.122259         0.820037
 H        -2.168152         1.665453         2.706479
 H        -1.821540         4.116272         1.158544
 H         1.342390         4.036452         3.434935
 H         0.583501         2.253385         3.376190
 H         1.838450         3.660849         0.860927
 H         1.852172         1.969099         1.244000
 H         0.026091         3.011804        -0.460026
