19
Iteration:  3527
 O         0.120332         0.033658         0.811758
 C        -0.574170         1.223519         0.863520
 C        -2.052589         1.246467         0.413750
 C        -1.662880         1.746869         1.781857
 C        -1.108288         3.204293         1.522722
 O        -0.495615         3.898493         2.629890
 C         0.659854         3.181366         2.845657
 C         1.219847         2.944156         1.380222
 C        -0.056783         2.656771         0.551452
 H         0.575851        -0.075751         1.636510
 H        -2.407918         2.000380        -0.289522
 H        -2.437283         0.267432         0.510211
 H        -1.862517         1.342833         2.743349
 H        -2.012019         3.751168         1.117285
 H         1.469995         3.632556         3.489814
 H         0.416423         2.214295         3.369394
 H         1.464396         3.983285         1.064482
 H         1.960524         2.145363         1.311970
 H        -0.009331         2.850892        -0.532472
