19
Iteration:  1947charge 0 multiplicity 1
 O         0.122457         0.015211         1.040292
 C        -0.673938         1.174009         0.834817
 C        -2.102977         1.296811         0.401828
 C        -1.672932         1.766751         1.737574
 C        -1.179799         3.172016         1.584467
 O        -0.524738         3.866627         2.611768
 C         0.778582         3.214477         2.755314
 C         1.274245         3.033247         1.347011
 C         0.021485         2.589614         0.582718
 H         0.380596        -0.360543         0.198122
 H        -2.400504         1.986698        -0.509031
 H        -2.657517         0.407055         0.374821
 H        -2.163641         1.282262         2.666184
 H        -2.068763         3.801706         1.292259
 H         1.527452         3.742019         3.343455
 H         0.710070         2.191087         3.122972
 H         1.578984         4.012326         0.957199
 H         2.259834         2.417272         1.463388
 H         0.185766         2.913052        -0.452574
