19
Iteration:   615charge 0 multiplicity 1
 O         0.199085         0.141741         0.920797
 C        -0.619546         1.171926         0.924610
 C        -2.060641         1.310811         0.373806
 C        -1.691515         1.722102         1.801539
 C        -1.221759         3.194909         1.573397
 O        -0.523755         3.857128         2.517666
 C         0.805380         3.247608         2.778334
 C         1.250687         2.896572         1.384898
 C        -0.035929         2.557055         0.624815
 H        -0.422246        -0.672321         0.988079
 H        -2.204044         2.021268        -0.387023
 H        -2.768560         0.394793         0.346348
 H        -2.208172         1.519587         2.743870
 H        -1.836832         3.980380         1.063318
 H         1.427192         4.073199         3.156606
 H         0.612153         2.423395         3.486972
 H         1.716125         3.698542         0.875307
 H         1.985987         2.038034         1.375408
 H         0.033067         2.797432        -0.395369
