19
Iteration:  3475charge 0 multiplicity 1
 O         0.116204         0.069459         0.803468
 C        -0.600322         1.212271         0.772770
 C        -2.067565         1.116867         0.461828
 C        -1.670095         1.908978         1.785637
 C        -1.163351         3.297849         1.505190
 O        -0.567515         3.769380         2.710378
 C         0.763684         3.249540         2.884443
 C         1.215344         2.858570         1.423652
 C        -0.030316         2.638703         0.514416
 H         0.897521         0.446887         1.175512
 H        -2.342135         1.710006        -0.445366
 H        -2.502258         0.074566         0.438245
 H        -2.188067         1.559209         2.746906
 H        -1.932690         4.035751         0.994255
 H         1.506038         4.075669         3.198384
 H         0.741801         2.330128         3.444914
 H         1.829540         3.722343         0.972608
 H         1.872760         1.977681         1.437256
 H         0.215666         2.716012        -0.553750
