19
Iteration:  4860
 O         0.046085         0.000823         0.795594
 C        -0.592419         1.205482         0.940296
 C        -2.030317         1.225888         0.366556
 C        -1.784408         1.848503         1.680046
 C        -1.120194         3.172760         1.509659
 O        -0.594979         3.741002         2.715328
 C         0.788705         3.274866         2.842656
 C         1.283604         3.037246         1.387146
 C         0.024197         2.615503         0.603546
 H         0.917059        -0.115868         1.298942
 H        -2.415815         1.758257        -0.498955
 H        -2.323203         0.174809         0.307234
 H        -2.245151         1.790361         2.727296
 H        -1.771360         3.926704         1.089556
 H         1.287923         3.985960         3.406914
 H         0.771377         2.295292         3.381397
 H         1.727398         3.953387         0.989269
 H         2.099446         2.373078         1.352464
 H         0.148243         2.884713        -0.383855
