19
Iteration:  1478
 O         0.264983         0.261592         0.869478
 C        -0.655971         1.235100         0.865235
 C        -2.130259         1.118595         0.476959
 C        -1.666469         1.882198         1.791093
 C        -1.122684         3.246012         1.456843
 O        -0.567680         3.804202         2.636523
 C         0.732068         3.191445         2.790449
 C         1.255155         2.804604         1.393833
 C        -0.064730         2.579388         0.559356
 H        -0.156499        -0.532576         1.153224
 H        -2.473551         1.642001        -0.438986
 H        -2.673605         0.198039         0.541093
 H        -1.939949         1.523608         2.745468
 H        -1.652661         4.025365         0.931129
 H         1.360968         4.013678         3.184993
 H         0.621539         2.361220         3.657783
 H         1.854241         3.663879         0.985570
 H         1.880815         1.944004         1.454532
 H         0.112702         2.892783        -0.512483
