19
Iteration:  4636charge 0 multiplicity 1
 O         0.133207         0.099723         0.860631
 C        -0.564598         1.288239         0.801787
 C        -2.035684         1.214970         0.413107
 C        -1.624389         1.753165         1.745066
 C        -1.146275         3.235598         1.563043
 O        -0.559951         3.804044         2.636873
 C         0.711624         3.198719         2.837324
 C         1.135563         2.904015         1.402325
 C         0.003391         2.639161         0.510220
 H         0.509999        -0.070949         1.787864
 H        -2.539378         1.820810        -0.350927
 H        -2.519178         0.345610         0.467392
 H        -2.061469         1.260968         2.640535
 H        -1.791140         3.986205         1.098464
 H         1.241263         3.845694         3.567579
 H         0.788755         2.220105         3.381576
 H         1.810540         3.689630         0.964842
 H         1.813544         1.895671         1.454828
 H         0.070962         3.206693        -0.449312
