19
Iteration:  1982
 O         0.102951         0.094552         0.936241
 C        -0.613105         1.268674         0.874304
 C        -2.053412         1.098156         0.500224
 C        -1.657117         1.878160         1.743505
 C        -1.145724         3.273275         1.485449
 O        -0.544043         3.817888         2.627418
 C         0.768630         3.128772         2.792929
 C         1.219633         2.935352         1.382852
 C         0.023728         2.635740         0.516090
 H        -0.101332        -0.313561         0.077461
 H        -2.331613         1.569595        -0.438791
 H        -2.417816         0.057309         0.844615
 H        -2.072131         1.657899         2.753745
 H        -1.969139         4.014555         1.166813
 H         1.441012         3.890384         3.386199
 H         0.444721         2.326077         3.472104
 H         1.637988         3.940649         1.072413
 H         2.075764         2.260093         1.501796
 H         0.093473         2.847295        -0.591489
