19
Iteration:   273
 O         0.030379         0.063252         1.058924
 C        -0.600336         1.200451         0.801840
 C        -2.107516         1.138772         0.391788
 C        -1.626211         1.758788         1.718729
 C        -1.141022         3.246610         1.473525
 O        -0.524333         3.882087         2.628760
 C         0.790715         3.274195         2.841099
 C         1.253468         2.877748         1.377816
 C        -0.008802         2.655277         0.565554
 H         0.567030        -0.333199         0.356930
 H        -2.549815         1.787547        -0.289292
 H        -2.498964         0.072300         0.518740
 H        -2.030111         1.570718         2.847921
 H        -1.749104         4.009295         0.949943
 H         1.602371         4.056240         3.195342
 H         0.772374         2.548144         3.629245
 H         1.467360         3.794296         0.970299
 H         1.891599         2.077625         1.134066
 H        -0.043192         2.934997        -0.547506
