19
Iteration:  4345
 O         0.055921         0.075036         0.789808
 C        -0.592532         1.272003         0.892954
 C        -2.047314         1.177283         0.359186
 C        -1.721989         1.792643         1.761393
 C        -1.120861         3.188560         1.533637
 O        -0.644500         3.797122         2.701514
 C         0.814892         3.219071         2.810925
 C         1.308655         2.983926         1.368394
 C         0.002601         2.611388         0.608992
 H         0.900998        -0.059713         1.288694
 H        -2.379564         1.735625        -0.526450
 H        -2.347079         0.235646         0.508231
 H        -2.262403         1.344836         2.682436
 H        -1.865660         3.869356         0.993390
 H         1.315721         4.079442         3.316876
 H         0.618720         2.328617         3.564545
 H         1.938833         3.954616         0.970124
 H         2.081838         2.168763         1.592890
 H        -0.060746         2.913812        -0.475820
