19
Iteration:  4458charge 0 multiplicity 1
 O         0.090262         0.098156         0.946838
 C        -0.594956         1.289418         0.787912
 C        -2.112295         1.109340         0.377514
 C        -1.751696         1.833668         1.692232
 C        -1.204414         3.216548         1.447519
 O        -0.533860         3.725724         2.704537
 C         0.746893         3.146735         2.868107
 C         1.319938         3.009728         1.364860
 C         0.024713         2.706000         0.585711
 H         0.992093         0.291542         1.351811
 H        -2.536096         1.541878        -0.405824
 H        -2.565749         0.119794         0.670005
 H        -1.981610         1.472752         2.652646
 H        -1.913597         3.971494         1.194481
 H         1.428961         3.684114         3.413938
 H         0.764172         2.071534         3.324193
 H         1.595465         3.972214         0.933390
 H         2.300693         2.367737         1.226515
 H         0.120167         3.051126        -0.465067
