19
Iteration:  1189
 O         0.002004        -0.000955         0.920671
 C        -0.660591         1.248585         0.794025
 C        -2.110268         1.199332         0.432822
 C        -1.644329         1.726453         1.731507
 C        -1.099982         3.151377         1.538633
 O        -0.553131         3.764352         2.663489
 C         0.780046         3.468249         2.751131
 C         1.332983         2.982037         1.439419
 C         0.052468         2.595346         0.634203
 H         0.293806        -0.440833         0.078084
 H        -2.453574         2.008125        -0.260672
 H        -2.551286         0.231750         0.501326
 H        -2.015098         1.392307         2.655110
 H        -1.853584         3.855551         1.054636
 H         1.280567         4.373671         3.076180
 H         0.866867         2.602763         3.529593
 H         1.840432         3.791591         0.893271
 H         1.891222         2.043531         1.564088
 H        -0.035111         2.931528        -0.486615
