19
Iteration:  2673charge 0 multiplicity 1
 O         0.085495         0.030926         0.839689
 C        -0.619312         1.224750         0.780579
 C        -2.100933         1.214279         0.390154
 C        -1.699357         1.774170         1.791910
 C        -1.099833         3.169075         1.547885
 O        -0.530961         3.824960         2.663977
 C         0.756882         3.366758         2.861240
 C         1.247102         2.906615         1.337690
 C         0.013002         2.625628         0.603235
 H         0.502893        -0.065205         1.685343
 H        -2.561589         1.891087        -0.327166
 H        -2.389984         0.228323         0.320210
 H        -2.182450         1.255630         2.653803
 H        -1.807925         3.847614         1.150287
 H         1.380513         4.162259         3.224057
 H         0.719224         2.362542         3.494227
 H         1.754735         3.709892         0.890022
 H         1.974537         2.108594         1.350781
 H         0.017591         2.894796        -0.451050
