19
Iteration:  1032
 O         0.254776         0.151021         1.102915
 C        -0.695451         1.233875         0.888112
 C        -2.053061         1.249392         0.351122
 C        -1.765648         1.855608         1.692968
 C        -1.141394         3.268031         1.511127
 O        -0.497783         3.757921         2.693696
 C         0.807890         3.148348         2.762901
 C         1.208877         2.942303         1.290932
 C        -0.077658         2.551925         0.560703
 H        -0.201394        -0.597220         0.565890
 H        -2.269445         1.754613        -0.510749
 H        -2.594765         0.241891         0.499363
 H        -2.175084         1.572607         2.627774
 H        -1.896551         3.926501         1.151625
 H         1.338909         4.008095         3.252566
 H         1.073886         2.231605         3.355257
 H         1.688721         3.778031         0.735243
 H         1.946426         2.149329         1.268046
 H        -0.166867         2.866753        -0.567968
