19
Iteration:  3558
 O         0.081147        -0.016620         0.827309
 C        -0.657841         1.248341         0.818405
 C        -2.051471         1.175098         0.444189
 C        -1.756544         1.810059         1.726382
 C        -1.156830         3.194130         1.470626
 O        -0.523794         3.761671         2.712243
 C         0.780732         3.282753         2.849669
 C         1.315881         3.018576         1.385663
 C        -0.007524         2.699960         0.524249
 H         0.715569        -0.083716         1.610474
 H        -2.564668         1.780710        -0.342557
 H        -2.457426         0.193812         0.531283
 H        -2.029825         1.546054         2.688498
 H        -1.997830         3.825974         1.207104
 H         1.320575         3.936624         3.560181
 H         0.650338         2.309073         3.365541
 H         1.867555         3.942892         1.083921
 H         2.199219         2.226111         1.441298
 H         0.030454         2.718027        -0.610580
