19
Iteration:   182
 O         0.240454         0.094640         1.154251
 C        -0.637851         1.212446         0.836626
 C        -2.068077         1.183165         0.356670
 C        -1.832841         1.850293         1.663610
 C        -1.122009         3.300597         1.544330
 O        -0.526836         3.747704         2.642568
 C         0.783956         3.152264         2.669351
 C         1.326349         2.987713         1.292036
 C        -0.077227         2.685185         0.622483
 H        -0.409144        -0.660673         1.418449
 H        -2.534910         1.701213        -0.531205
 H        -2.480038         0.224866         0.543631
 H        -2.096720         1.464367         2.566802
 H        -1.842431         4.033603         1.132073
 H         1.328266         3.679436         3.440646
 H         0.736008         2.114818         2.972928
 H         1.738596         3.942733         1.037578
 H         1.834735         2.055837         1.120267
 H         0.100507         2.977264        -0.460418
