19
Iteration:  4459charge 0 multiplicity 1
 O         0.084029         0.102959         0.945684
 C        -0.587790         1.285871         0.785562
 C        -2.108337         1.104565         0.381710
 C        -1.754200         1.834107         1.692826
 C        -1.205069         3.213447         1.446361
 O        -0.529938         3.723254         2.702999
 C         0.742400         3.146274         2.873510
 C         1.324048         3.015889         1.367719
 C         0.025567         2.707613         0.582914
 H         0.993990         0.305107         1.353446
 H        -2.537699         1.572395        -0.430699
 H        -2.589856         0.095809         0.654491
 H        -1.999647         1.480667         2.689668
 H        -1.902115         3.971438         1.186945
 H         1.443688         3.719806         3.416741
 H         0.769449         2.062179         3.317928
 H         1.593935         3.937895         0.923930
 H         2.267086         2.357586         1.206886
 H         0.101820         3.048018        -0.460918
