19
Iteration:  1365charge 0 multiplicity 1
 O         0.022005        -0.013924         1.087105
 C        -0.684118         1.268789         0.785918
 C        -1.994747         1.181847         0.318465
 C        -1.699020         1.736073         1.705381
 C        -1.188462         3.182008         1.613819
 O        -0.481145         3.814737         2.665318
 C         0.845675         3.328913         2.754320
 C         1.248688         2.920205         1.351155
 C        -0.059900         2.691911         0.603737
 H         0.619155        -0.094596         0.367178
 H        -2.325300         1.847600        -0.383909
 H        -2.387681         0.126984         0.414153
 H        -2.099371         1.237273         2.597879
 H        -1.921130         3.960864         1.186288
 H         1.401351         4.199487         2.994582
 H         0.943251         2.448750         3.568582
 H         1.585967         3.868273         0.928627
 H         2.103919         2.240394         0.977346
 H         0.055185         3.095440        -0.465144
