19
Iteration:  3837
 O         0.114412         0.114215         0.908924
 C        -0.586841         1.286950         0.835121
 C        -2.036309         1.180093         0.400441
 C        -1.720302         1.846259         1.760131
 C        -1.166036         3.214787         1.578498
 O        -0.568914         3.761409         2.701040
 C         0.769917         3.138456         2.799832
 C         1.228526         2.896881         1.319243
 C         0.008445         2.655547         0.522339
 H         1.025874         0.370270         1.220929
 H        -2.362949         1.698071        -0.403163
 H        -2.436527         0.115710         0.342946
 H        -2.371360         1.709417         2.694526
 H        -1.874777         3.962394         1.237278
 H         1.403235         3.792888         3.325911
 H         0.632163         2.246106         3.411116
 H         1.659626         3.759261         0.775628
 H         1.981398         2.128959         1.353125
 H        -0.103894         3.041563        -0.498173
