19
Iteration:  2312
 O         0.144715         0.051781         0.920896
 C        -0.688583         1.261604         0.786719
 C        -2.121797         1.165687         0.361298
 C        -1.712597         1.723546         1.743815
 C        -1.173241         3.150192         1.580970
 O        -0.548542         3.832255         2.596488
 C         0.900811         3.458367         2.854896
 C         1.291935         2.851610         1.434565
 C        -0.062757         2.690451         0.647017
 H         0.333342        -0.450486         0.135190
 H        -2.356533         1.787649        -0.504379
 H        -2.492346         0.144770         0.462770
 H        -1.973883         1.113062         2.586804
 H        -1.831846         3.915164         1.175814
 H         1.316103         4.356459         3.093212
 H         0.892246         2.607331         3.637963
 H         2.001899         3.530755         0.887180
 H         1.614602         1.825559         1.570906
 H         0.003019         2.877966        -0.423621
