19
Iteration:  4062
 O         0.153570         0.034408         0.764064
 C        -0.493441         1.244222         0.825499
 C        -2.084102         1.178797         0.498235
 C        -1.694530         1.849976         1.753722
 C        -1.161329         3.262502         1.469184
 O        -0.605712         3.836867         2.659842
 C         0.725852         3.116241         2.807311
 C         1.254919         2.886636         1.382071
 C        -0.044953         2.687154         0.635284
 H         0.696761         0.024351         1.525646
 H        -2.428028         1.910599        -0.269710
 H        -2.598455         0.116819         0.637854
 H        -1.944149         1.710170         2.723530
 H        -1.916301         4.022929         1.112800
 H         1.376337         3.756058         3.501187
 H         0.494285         2.232310         3.416306
 H         1.571386         3.822468         1.072159
 H         2.127235         2.240128         1.199467
 H         0.076478         2.979744        -0.361098
