19
Iteration:  3801charge 0 multiplicity 1
 O         0.099316         0.011233         0.843112
 C        -0.607617         1.206094         0.756948
 C        -2.055926         1.242024         0.394874
 C        -1.693866         1.735320         1.733280
 C        -1.192663         3.156640         1.653498
 O        -0.519307         3.876522         2.637250
 C         0.787447         3.233289         2.838167
 C         1.207299         3.009191         1.358541
 C        -0.002162         2.594933         0.587016
 H         0.407043        -0.158479         1.786445
 H        -2.367442         1.941890        -0.409368
 H        -2.451278         0.298465         0.433317
 H        -2.249317         1.688161         2.588634
 H        -1.926109         3.887534         1.319395
 H         1.476718         3.905554         3.396469
 H         0.782622         2.161232         3.158904
 H         1.621042         4.015133         1.099200
 H         2.160674         2.343330         1.402032
 H         0.205072         3.043590        -0.529358
