19
Iteration:   339
 O         0.206315         0.050452         0.916396
 C        -0.614823         1.228393         0.810298
 C        -2.122660         1.084991         0.515934
 C        -1.651716         1.901392         1.738598
 C        -1.169135         3.280542         1.442901
 O        -0.506411         3.897680         2.599273
 C         0.687305         3.225427         2.824531
 C         1.266851         2.843667         1.367719
 C         0.003957         2.612823         0.603547
 H        -0.300648        -0.531865         0.322685
 H        -2.589998         1.599695        -0.317568
 H        -2.569640         0.189419         0.920207
 H        -2.102793         1.662040         2.846369
 H        -1.739896         4.104553         0.991148
 H         1.302220         3.942273         3.519036
 H         0.426431         2.382446         3.435320
 H         1.734722         3.725805         1.092423
 H         1.955614         2.053271         1.544951
 H         0.149094         3.043447        -0.445370
