19
Iteration:   588
 O         0.183084         0.017447         0.893132
 C        -0.640670         1.113950         0.834687
 C        -2.050362         1.188396         0.374825
 C        -1.814122         1.757853         1.761860
 C        -1.199784         3.267240         1.568560
 O        -0.537480         3.943815         2.668459
 C         0.876423         3.322463         2.781318
 C         1.323997         2.917755         1.349212
 C        -0.061136         2.560409         0.671763
 H        -0.341548        -0.851040         0.932283
 H        -2.257755         1.865999        -0.542967
 H        -2.561283         0.296425         0.374123
 H        -2.534623         1.566287         2.626941
 H        -1.693805         4.098855         1.070160
 H         1.548465         4.131265         3.115266
 H         0.717854         2.488818         3.464287
 H         1.736284         3.868077         0.836717
 H         2.067821         2.123290         1.262696
 H         0.033699         2.960570        -0.420366
