19
Iteration:  4792charge 0 multiplicity 1
 O         0.215079         0.171457         0.854652
 C        -0.612114         1.332141         0.825474
 C        -2.037096         1.195314         0.378522
 C        -1.689997         1.828809         1.749540
 C        -1.216682         3.184573         1.502161
 O        -0.541438         3.842636         2.642082
 C         0.748833         3.088196         2.818718
 C         1.211999         2.863009         1.441620
 C        -0.029409         2.619984         0.592453
 H         0.322877        -0.010455         1.762710
 H        -2.378005         1.851007        -0.413210
 H        -2.426880         0.187361         0.334379
 H        -2.108366         1.667099         2.701331
 H        -2.027248         3.850948         1.237153
 H         1.403585         3.710764         3.529078
 H         0.415833         2.156735         3.294672
 H         1.868594         3.683734         0.952699
 H         1.948823         1.995614         1.265268
 H        -0.048315         2.808262        -0.513424
