19
Iteration:  1616charge 0 multiplicity 1
 O         0.213230         0.169116         1.110285
 C        -0.622613         1.225850         0.771989
 C        -2.105187         1.120266         0.379244
 C        -1.726322         1.799183         1.721915
 C        -1.217539         3.275753         1.568918
 O        -0.449589         3.843463         2.636064
 C         0.750046         3.174809         2.776135
 C         1.248333         2.842463         1.359847
 C        -0.101636         2.681370         0.549882
 H         0.621178        -0.194996         0.244025
 H        -2.553342         1.639497        -0.538186
 H        -2.507565         0.127170         0.378302
 H        -2.227885         1.548353         2.646519
 H        -1.880853         4.022069         1.118205
 H         1.526780         3.825104         3.193501
 H         0.716298         2.201558         3.494062
 H         1.701076         3.740698         1.071602
 H         1.886069         1.900441         1.199981
 H         0.053316         3.023844        -0.468044
