19
Iteration:  3966
 O         0.080467         0.018836         0.801199
 C        -0.627482         1.197995         0.842157
 C        -2.055668         1.187411         0.383801
 C        -1.791439         1.861338         1.697293
 C        -1.187141         3.156042         1.576493
 O        -0.523285         3.702673         2.692348
 C         0.829937         3.370336         2.793484
 C         1.301250         3.005790         1.409510
 C        -0.013836         2.639013         0.640881
 H         0.830615         0.033691         1.390036
 H        -2.426226         1.782842        -0.475687
 H        -2.460609         0.063481         0.542262
 H        -2.332880         1.599287         2.612864
 H        -1.785786         3.998695         1.250513
 H         1.200638         4.125367         3.414120
 H         0.954537         2.398636         3.357525
 H         1.740820         3.783285         0.765631
 H         2.080839         2.162257         1.376902
 H         0.063210         2.952714        -0.451560
