19
Iteration:  1939charge 0 multiplicity 1
 O         0.074477         0.053647         1.059210
 C        -0.647660         1.177881         0.860218
 C        -2.065349         1.283138         0.294043
 C        -1.636776         1.729902         1.824651
 C        -1.184630         3.173359         1.574539
 O        -0.490853         3.864119         2.658019
 C         0.750763         3.226968         2.739637
 C         1.280336         2.998451         1.364352
 C         0.006161         2.584652         0.537145
 H         0.329590        -0.233870         0.201121
 H        -2.329835         2.021554        -0.448703
 H        -2.693486         0.362892         0.355693
 H        -2.190720         1.137813         2.613681
 H        -1.980170         3.892404         1.185843
 H         1.416023         4.076117         3.274712
 H         0.709840         2.180237         3.286400
 H         1.519979         3.993561         0.913922
 H         2.070188         2.315194         1.170890
 H         0.031304         2.941515        -0.545609
