19
Iteration:  3593
 O         0.116383         0.030229         0.914273
 C        -0.603689         1.202713         0.842955
 C        -2.060550         1.228125         0.284237
 C        -1.781524         1.855658         1.728100
 C        -1.232738         3.161801         1.560220
 O        -0.514127         3.770074         2.771677
 C         0.829323         3.312088         2.794334
 C         1.291787         2.935869         1.354532
 C        -0.071575         2.585530         0.565774
 H         0.922716         0.370077         1.390936
 H        -2.362416         1.839353        -0.543771
 H        -2.577534         0.215969         0.331504
 H        -2.294583         1.313845         2.583249
 H        -1.765196         4.106055         1.276213
 H         1.376132         4.160987         3.331230
 H         0.910025         2.357960         3.363096
 H         1.721134         3.855041         0.846484
 H         2.140187         2.133365         1.191413
 H         0.087179         2.919133        -0.498123
