19
Iteration:  2137charge 0 multiplicity 1
 O         0.112161         0.060376         1.037111
 C        -0.647545         1.236367         0.903153
 C        -1.970253         1.236763         0.339889
 C        -1.668261         1.766131         1.725948
 C        -1.168634         3.213522         1.577063
 O        -0.524172         3.870468         2.682069
 C         0.840859         3.202786         2.752681
 C         1.213787         2.902807         1.273844
 C        -0.161097         2.619834         0.609169
 H         0.924169         0.174903         0.463338
 H        -2.401770         1.814187        -0.516510
 H        -2.319463         0.258404         0.427923
 H        -2.266866         1.278083         2.527113
 H        -1.812464         3.991495         1.021773
 H         1.355177         3.835461         3.539581
 H         0.663986         2.280354         3.255578
 H         1.749939         3.810190         0.817314
 H         1.890915         2.092639         1.065284
 H        -0.207701         2.898133        -0.471441
