19
Iteration:  1772charge 0 multiplicity 1
 O         0.103802         0.102107         0.975917
 C        -0.667059         1.268305         0.837776
 C        -2.040921         1.098783         0.403875
 C        -1.740258         1.821725         1.763942
 C        -1.144059         3.256332         1.492895
 O        -0.576295         3.810766         2.643854
 C         0.794661         3.232515         2.825558
 C         1.285232         2.864129         1.385290
 C        -0.016319         2.669624         0.523064
 H         0.687572         0.001074         0.252925
 H        -2.315872         1.684752        -0.442518
 H        -2.415477         0.148573         0.740351
 H        -1.947609         1.417789         2.726484
 H        -2.039339         3.844331         1.154256
 H         1.396103         4.089309         3.135892
 H         1.021942         2.438774         3.622428
 H         1.920334         3.616955         1.067271
 H         1.781012         1.857802         1.280327
 H         0.060981         3.224102        -0.433078
