19
Iteration:  2590charge 0 multiplicity 1
 O         0.257527         0.152489         0.893339
 C        -0.629319         1.251177         0.784694
 C        -2.167164         1.125241         0.538857
 C        -1.713955         1.878062         1.796637
 C        -1.115772         3.178497         1.471403
 O        -0.551689         3.898220         2.665528
 C         0.762458         3.207665         2.797022
 C         1.231233         2.840353         1.382726
 C        -0.024965         2.583588         0.546995
 H         0.233959        -0.259472        -0.044788
 H        -2.666552         1.679769        -0.325493
 H        -2.591570         0.210134         0.731373
 H        -1.994888         1.566800         2.765692
 H        -1.867701         3.824852         0.879576
 H         1.427579         3.825357         3.374946
 H         0.577550         2.415562         3.442731
 H         1.845750         3.710741         1.056440
 H         1.917963         1.993769         1.672032
 H        -0.028830         2.917674        -0.505426
