19
Iteration:  1138charge 0 multiplicity 1
 O         0.169674         0.076972         0.839002
 C        -0.690618         1.222954         0.888581
 C        -2.016487         1.177876         0.334139
 C        -1.765688         1.787067         1.802886
 C        -1.164734         3.150732         1.563554
 O        -0.502717         3.951871         2.668769
 C         0.822532         3.336280         2.831565
 C         1.253080         2.882820         1.365797
 C        -0.018522         2.570929         0.618514
 H        -0.287256        -0.829791         0.712747
 H        -2.276372         1.768542        -0.542782
 H        -2.338371         0.067315         0.516522
 H        -2.342024         1.412954         2.582406
 H        -1.904612         3.782350         1.084305
 H         1.436039         4.179967         3.207840
 H         0.776955         2.468166         3.420752
 H         1.693947         3.679739         0.836256
 H         1.936461         1.948289         1.319011
 H        -0.142450         2.991195        -0.312065
