19
Iteration:   575
 O         0.164774        -0.018184         0.939982
 C        -0.620403         1.218169         0.809856
 C        -2.157279         1.124532         0.409452
 C        -1.730478         1.872978         1.675943
 C        -1.164334         3.238846         1.540141
 O        -0.577746         3.847354         2.673714
 C         0.866455         3.320971         2.772021
 C         1.321826         2.947375         1.365759
 C         0.028261         2.614691         0.664493
 H        -0.507193        -0.647480         0.780181
 H        -2.590418         1.704538        -0.526742
 H        -2.759265         0.217030         0.637280
 H        -2.223096         1.464902         2.681986
 H        -1.912208         3.880520         1.046859
 H         1.332421         4.134286         3.269325
 H         1.085510         2.452800         3.452119
 H         1.841204         3.827213         0.782219
 H         2.067272         2.163249         1.519136
 H         0.003476         2.951838        -0.504352
