19
Iteration:  3113charge 0 multiplicity 1
 O         0.125455         0.060929         0.869917
 C        -0.610958         1.262970         0.849097
 C        -2.061843         1.166726         0.442370
 C        -1.733800         1.789173         1.766657
 C        -1.157506         3.255982         1.545185
 O        -0.523898         3.833129         2.622992
 C         0.732890         3.181410         2.785688
 C         1.239000         2.911075         1.415166
 C        -0.019440         2.673395         0.533784
 H         1.051385         0.123470         1.264003
 H        -2.483621         1.918278        -0.301973
 H        -2.595114         0.294813         0.493854
 H        -1.921535         1.110631         2.607667
 H        -1.912832         3.963395         1.079098
 H         1.276411         3.855955         3.513875
 H         0.551734         2.319865         3.423324
 H         1.949551         3.703214         0.958281
 H         1.869528         2.012633         1.374510
 H         0.176975         2.970529        -0.552301
