19
Iteration:  4178
 O         0.117487         0.024524         0.910860
 C        -0.623649         1.174534         0.717373
 C        -2.079595         1.209424         0.352530
 C        -1.669870         1.842648         1.740426
 C        -1.142383         3.259047         1.562451
 O        -0.587960         3.748004         2.719436
 C         0.785935         3.182911         2.797772
 C         1.271847         3.033945         1.370631
 C        -0.038321         2.664148         0.617309
 H         0.445000         0.023622         1.782206
 H        -2.440891         1.723349        -0.441976
 H        -2.466391         0.174830         0.640030
 H        -2.111787         1.360236         2.582509
 H        -1.905077         3.891601         1.076198
 H         1.545165         3.844779         3.262611
 H         0.862743         2.278716         3.347077
 H         1.725864         4.100631         1.012886
 H         2.083742         2.348513         1.040474
 H        -0.010299         2.955057        -0.484042
