19
Iteration:   548
 O         0.057786         0.122297         1.053377
 C        -0.607062         1.294913         0.756001
 C        -2.069782         1.164229         0.498851
 C        -1.667713         1.839635         1.801472
 C        -1.126548         3.223050         1.422146
 O        -0.585751         3.711768         2.624121
 C         0.825204         3.251464         2.823934
 C         1.255177         2.914016         1.374153
 C         0.021937         2.598830         0.517642
 H        -0.107013        -0.389722         0.261972
 H        -2.405567         1.859746        -0.187815
 H        -2.508166         0.144323         0.337468
 H        -2.026799         1.609935         2.714380
 H        -1.802841         3.947556         0.907230
 H         1.227368         4.262882         3.119062
 H         1.008620         2.462009         3.582189
 H         1.646442         3.753239         0.930783
 H         2.069345         2.160091         1.456360
 H         0.023003         2.873931        -0.478416
