19
Iteration:  3969
 O         0.095837        -0.008736         0.795958
 C        -0.655778         1.208870         0.830869
 C        -2.043178         1.192480         0.369523
 C        -1.798703         1.843707         1.711378
 C        -1.157408         3.211583         1.592987
 O        -0.544072         3.693226         2.698481
 C         0.823108         3.383435         2.771524
 C         1.298565         2.972456         1.406007
 C        -0.017587         2.650779         0.647095
 H         0.911018         0.016775         1.421095
 H        -2.366258         1.721118        -0.426632
 H        -2.369105         0.245563         0.613457
 H        -2.320687         1.561785         2.734440
 H        -1.832092         3.962122         1.172896
 H         1.246877         4.107766         3.453919
 H         0.890642         2.386933         3.332796
 H         1.706833         3.787677         0.717207
 H         2.053504         2.211960         1.408920
 H         0.109081         2.945364        -0.489983
