19
Iteration:   172charge 0 multiplicity 1
 O         0.227133         0.190314         1.119417
 C        -0.648750         1.249804         0.785334
 C        -2.056439         1.153801         0.426409
 C        -1.740652         1.915231         1.721128
 C        -1.190814         3.277375         1.412339
 O        -0.504830         3.715722         2.662280
 C         0.771593         3.078695         2.755124
 C         1.240831         2.974617         1.317444
 C        -0.027557         2.616792         0.570709
 H        -0.334144        -0.565874         1.498224
 H        -2.491991         1.751306        -0.393381
 H        -2.441223         0.196593         0.538406
 H        -2.165003         1.644921         2.612853
 H        -1.839650         4.095091         1.075496
 H         1.376166         3.722449         3.425898
 H         0.623759         2.091822         3.179961
 H         1.651330         3.806600         0.802350
 H         2.030462         2.251328         1.262229
 H         0.114316         2.783545        -0.561537
