19
Iteration:   456
 O         0.161670         0.089363         1.155496
 C        -0.632040         1.248824         0.807094
 C        -2.146134         1.158951         0.455046
 C        -1.632287         1.901638         1.694523
 C        -1.148432         3.330591         1.446336
 O        -0.599992         3.703205         2.686509
 C         0.762095         3.157190         2.744254
 C         1.309314         2.961883         1.310723
 C         0.006859         2.660653         0.527295
 H        -0.020781        -0.546678         0.379873
 H        -2.616564         1.683189        -0.367423
 H        -2.421092         0.073588         0.681276
 H        -2.126180         1.345097         2.575247
 H        -1.822745         4.102161         1.010535
 H         1.377456         3.937066         3.208726
 H         0.821188         2.193372         3.326153
 H         1.912730         3.875723         0.914600
 H         1.884781         2.040786         1.264632
 H         0.045282         3.046490        -0.472080
