19
Iteration:   396charge 0 multiplicity 1
 O         0.259045         0.043270         1.004884
 C        -0.646043         1.165824         0.896403
 C        -2.023261         1.298042         0.376537
 C        -1.737656         1.858026         1.793777
 C        -1.206377         3.178021         1.500638
 O        -0.526686         3.913962         2.643546
 C         0.784675         3.206098         2.757983
 C         1.211710         2.935080         1.301294
 C        -0.058158         2.537373         0.601829
 H        -0.311470        -0.751519         0.808970
 H        -2.165728         1.967032        -0.555541
 H        -2.645733         0.475949         0.236742
 H        -2.264036         1.443350         2.670770
 H        -1.834467         3.958445         1.071166
 H         1.480750         3.895886         3.292653
 H         0.671821         2.317171         3.450070
 H         1.833819         3.743589         0.906341
 H         1.927164         2.057319         1.326882
 H        -0.049819         2.904723        -0.511708
