19
Iteration:  2896
 O         0.091861        -0.030993         0.745636
 C        -0.603376         1.167932         0.931996
 C        -2.104970         1.286819         0.442616
 C        -1.571707         1.830838         1.841781
 C        -1.176284         3.179038         1.462934
 O        -0.611742         3.873020         2.677884
 C         0.694926         3.246943         2.781668
 C         1.318435         2.957125         1.398518
 C         0.029086         2.612941         0.573524
 H         0.555164        -0.197253         1.554739
 H        -2.145555         1.920328        -0.522309
 H        -2.661147         0.340920         0.511343
 H        -1.873136         1.331216         2.733923
 H        -1.934306         3.790082         1.052029
 H         1.375752         3.910281         3.327491
 H         0.387809         2.341377         3.356793
 H         1.626853         3.916019         0.915990
 H         2.081734         2.194144         1.361869
 H         0.120328         3.064120        -0.463179
