19
Iteration:   349charge 0 multiplicity 1
 O         0.202781         0.026877         0.936404
 C        -0.653549         1.206341         0.755405
 C        -2.160906         1.075021         0.529856
 C        -1.697927         1.885336         1.740404
 C        -1.091060         3.290725         1.437923
 O        -0.600980         3.944644         2.621660
 C         0.745087         3.193984         2.808579
 C         1.368363         2.896707         1.439586
 C         0.027179         2.684924         0.580231
 H        -0.296855        -0.751378         0.509850
 H        -2.809262         1.504040        -0.202483
 H        -2.560120         0.069823         0.803735
 H        -2.274172         1.482807         2.746641
 H        -1.848671         3.955489         0.964005
 H         1.358603         3.902656         3.494077
 H         0.683853         2.234916         3.271505
 H         1.873183         3.627737         0.877082
 H         1.935117         1.998240         1.352990
 H         0.123283         3.110508        -0.443597
