19
Iteration:  2303
 O         0.097766         0.078494         0.950176
 C        -0.570292         1.243201         0.712128
 C        -2.063737         1.134204         0.390222
 C        -1.720219         1.750326         1.734606
 C        -1.197328         3.202650         1.567269
 O        -0.534959         3.796732         2.674888
 C         0.823968         3.441638         2.755244
 C         1.281736         2.844883         1.450552
 C        -0.068652         2.657420         0.646472
 H        -0.039665        -0.470939         0.178695
 H        -2.454242         1.693902        -0.356784
 H        -2.598440         0.144130         0.441058
 H        -1.917631         1.219834         2.611920
 H        -1.810324         3.922990         0.957965
 H         1.398734         4.263484         3.084053
 H         1.019757         2.782281         3.629247
 H         1.947889         3.515007         0.968360
 H         1.814403         1.852794         1.469739
 H         0.059631         3.247930        -0.251026
