19
Iteration:  1091charge 0 multiplicity 1
 O         0.258443         0.247272         0.989839
 C        -0.603056         1.299289         0.784035
 C        -2.079414         1.131796         0.528008
 C        -1.637205         1.832584         1.777289
 C        -1.123341         3.295079         1.425143
 O        -0.575924         3.857112         2.678322
 C         0.724251         2.977612         2.798297
 C         1.217662         2.858368         1.294190
 C        -0.052652         2.585673         0.477750
 H        -0.272702        -0.537197         1.252727
 H        -2.519714         2.003130        -0.250613
 H        -2.587439         0.254454         0.730269
 H        -2.073765         1.552610         2.794086
 H        -1.831272         4.153589         1.037774
 H         1.174457         3.695470         3.426871
 H         0.333207         2.073313         3.281823
 H         1.680071         3.868143         1.044234
 H         1.990161         2.038133         1.365164
 H         0.094349         2.934670        -0.586256
