19
Iteration:  3165
 O         0.137002        -0.006327         0.746123
 C        -0.611122         1.208167         0.745576
 C        -2.034198         1.170092         0.491416
 C        -1.682751         1.839158         1.788702
 C        -1.129602         3.223863         1.493477
 O        -0.529980         3.879238         2.633804
 C         0.720066         3.206343         2.842329
 C         1.217193         2.963958         1.430644
 C        -0.016457         2.631472         0.608662
 H         0.437268        -0.029750         1.674881
 H        -2.640157         1.698450        -0.276787
 H        -2.281059         0.189229         0.590124
 H        -2.107652         1.715191         2.765561
 H        -1.785947         3.859482         1.057072
 H         1.245005         3.870602         3.556986
 H         0.376904         2.332490         3.458342
 H         1.754804         3.725389         0.905271
 H         1.934105         2.143195         1.527369
 H         0.051290         3.076504        -0.354102
