19
Iteration:  1068
 O         0.260578         0.195529         1.024216
 C        -0.605297         1.276966         0.839371
 C        -2.106102         1.148455         0.500322
 C        -1.730276         1.914430         1.719300
 C        -1.159504         3.235813         1.479744
 O        -0.450447         3.799498         2.581655
 C         0.687350         2.964528         2.751192
 C         1.256402         2.951461         1.324932
 C        -0.092717         2.709490         0.560745
 H        -0.206827        -0.692415         1.143649
 H        -2.469886         1.344523        -0.624518
 H        -2.263371         0.162577         0.828384
 H        -2.039513         1.720895         2.824993
 H        -1.911546         4.095639         1.275840
 H         1.258763         3.499502         3.501666
 H         0.213148         2.061805         3.131070
 H         1.863035         3.925219         1.258629
 H         1.858579         2.066293         1.222032
 H        -0.000468         2.957732        -0.560039
