19
Iteration:  2106charge 0 multiplicity 1
 O         0.118154         0.028024         1.070066
 C        -0.681057         1.211609         0.808647
 C        -2.144664         1.271101         0.391625
 C        -1.631734         1.737296         1.745033
 C        -1.171013         3.187277         1.519736
 O        -0.553567         3.754896         2.626904
 C         0.830299         3.272880         2.789394
 C         1.327083         3.058926         1.373842
 C        -0.036669         2.590369         0.551977
 H         0.306815        -0.246695         0.172044
 H        -2.508703         1.989971        -0.396653
 H        -2.545052         0.328426         0.417513
 H        -2.019506         1.277354         2.708050
 H        -1.849716         4.005026         1.157885
 H         1.309265         4.093037         3.476569
 H         0.818530         2.303096         3.189654
 H         1.638727         4.017671         1.022297
 H         2.151887         2.325400         1.281688
 H         0.008969         2.886338        -0.528763
