19
Iteration:  2405charge 0 multiplicity 1
 O         0.145343         0.067572         0.842242
 C        -0.579994         1.219085         0.804927
 C        -2.111782         1.126372         0.565233
 C        -1.681232         1.782292         1.768353
 C        -1.103985         3.302169         1.455437
 O        -0.515343         3.859957         2.598598
 C         0.695508         3.105583         2.828958
 C         1.232963         2.978907         1.382572
 C        -0.022886         2.665143         0.511854
 H         0.532563        -0.097844         1.762221
 H        -2.470374         1.728704        -0.272220
 H        -2.593087         0.250974         0.727590
 H        -2.113861         1.473162         2.801517
 H        -1.997176         3.950529         1.191652
 H         1.429869         3.880931         3.334367
 H         0.489758         2.135497         3.298353
 H         1.670191         3.952276         1.133581
 H         1.916837         2.134201         1.481166
 H         0.166651         3.062064        -0.525735
