19
Iteration:  3081
 O         0.100023         0.072801         0.909531
 C        -0.640225         1.226774         0.778855
 C        -2.017435         1.136983         0.368863
 C        -1.884177         1.811914         1.674872
 C        -1.092159         3.245102         1.566810
 O        -0.495330         3.731232         2.711761
 C         0.847453         3.330880         2.818901
 C         1.200510         2.909763         1.385106
 C        -0.053418         2.609246         0.600109
 H         0.959304         0.296302         1.295792
 H        -2.443202         1.772153        -0.474382
 H        -2.509960         0.280875         0.668337
 H        -2.344457         1.312709         2.508203
 H        -1.691673         4.142308         1.100268
 H         1.523433         4.157316         3.132021
 H         0.976155         2.481025         3.449269
 H         1.687575         3.801085         0.853094
 H         1.925207         2.099908         1.454976
 H         0.161505         3.001452        -0.444045
