19
Iteration:  1940
 O         0.080364         0.050786         1.056613
 C        -0.653045         1.171649         0.860994
 C        -2.071198         1.292031         0.301916
 C        -1.640925         1.733817         1.819480
 C        -1.187026         3.172161         1.575541
 O        -0.494343         3.866388         2.653218
 C         0.751139         3.224666         2.740215
 C         1.283904         3.000270         1.367312
 C         0.010831         2.585796         0.538123
 H         0.332416        -0.244093         0.205574
 H        -2.333678         1.980099        -0.432322
 H        -2.705400         0.349076         0.359323
 H        -2.173407         1.157355         2.583932
 H        -1.989449         3.865591         1.212070
 H         1.439246         4.055895         3.260627
 H         0.719152         2.165348         3.236544
 H         1.515165         4.000326         0.918716
 H         2.083752         2.347963         1.210390
 H         0.066081         2.947313        -0.536668
