19
Iteration:  1168
 O         0.122434        -0.079252         0.882225
 C        -0.635126         1.188125         0.835636
 C        -2.105666         1.295982         0.443020
 C        -1.714830         1.756446         1.754385
 C        -1.200667         3.135111         1.466686
 O        -0.593987         3.833583         2.690067
 C         0.884869         3.452551         2.825931
 C         1.315445         2.955561         1.395914
 C         0.028712         2.597619         0.611738
 H        -0.131257        -0.736896         0.281799
 H        -2.425949         2.077989        -0.352434
 H        -2.575465         0.282978         0.335663
 H        -2.071553         1.351158         2.633111
 H        -1.984477         3.854956         1.037941
 H         1.290087         4.396291         3.179141
 H         1.034935         2.735346         3.709326
 H         1.801091         3.766372         0.872752
 H         1.937102         1.995252         1.409291
 H         0.051179         3.091096        -0.451070
