19
Iteration:  2193charge 0 multiplicity 1
 O         0.161662         0.209162         1.090724
 C        -0.619724         1.249941         0.820192
 C        -2.066369         1.146827         0.465523
 C        -1.661349         1.842095         1.745052
 C        -1.166078         3.245189         1.496021
 O        -0.541880         3.723870         2.678694
 C         0.699356         3.101302         2.702479
 C         1.261860         2.945965         1.338369
 C        -0.019759         2.669846         0.491835
 H         0.145929        -0.366493         0.266595
 H        -2.451452         1.893862        -0.252682
 H        -2.510361         0.196440         0.513149
 H        -1.790355         1.515135         2.851541
 H        -1.866488         4.043845         1.055272
 H         1.267745         3.783410         3.461049
 H         0.540413         2.123624         3.254783
 H         1.724181         3.909892         1.048335
 H         1.944439         2.108009         1.168183
 H         0.197321         2.917865        -0.576658
