19
Iteration:  3883
 O         0.117665         0.165441         0.897176
 C        -0.621188         1.252624         0.801836
 C        -2.003759         1.194729         0.424649
 C        -1.730205         1.810342         1.761560
 C        -1.185877         3.218370         1.501469
 O        -0.503646         3.796464         2.710445
 C         0.754438         3.070752         2.777483
 C         1.238377         2.971377         1.362380
 C        -0.037658         2.632604         0.526590
 H         0.645544         0.327934         1.675275
 H        -2.545157         1.554755        -0.479763
 H        -2.421692         0.271480         0.747814
 H        -2.260018         1.339964         2.717614
 H        -1.789748         4.084974         1.146271
 H         1.444529         3.595531         3.486672
 H         0.634453         2.064743         3.167710
 H         1.618672         3.965531         1.020671
 H         1.998669         2.254611         1.247956
 H         0.132133         2.807935        -0.522254
