19
Iteration:  1053charge 0 multiplicity 1
 O         0.237118         0.224331         1.041081
 C        -0.636343         1.258804         0.858234
 C        -2.033652         1.083343         0.424009
 C        -1.824253         1.872606         1.760798
 C        -1.178056         3.288955         1.497071
 O        -0.458411         3.839677         2.611916
 C         0.761771         3.013361         2.788520
 C         1.279498         2.932834         1.319625
 C        -0.050525         2.654298         0.560334
 H        -0.247057        -0.558753         0.894180
 H        -2.487245         1.590359        -0.311591
 H        -2.617653         0.092839         0.591862
 H        -2.473592         1.519050         2.515742
 H        -1.739739         4.032955         1.011480
 H         1.472441         3.495036         3.530724
 H         0.622170         1.919565         3.099898
 H         1.568918         3.923833         0.929322
 H         2.005741         2.143329         1.120877
 H        -0.120501         3.043777        -0.521896
