19
Iteration:  2304
 O         0.101812         0.076180         0.947822
 C        -0.578445         1.250569         0.719203
 C        -2.073153         1.136127         0.386371
 C        -1.720116         1.750558         1.737702
 C        -1.196818         3.194132         1.572172
 O        -0.535981         3.798978         2.663064
 C         0.831831         3.440204         2.767219
 C         1.287130         2.848435         1.448100
 C        -0.074468         2.661163         0.650478
 H         0.005877        -0.502428         0.152155
 H        -2.419237         1.697746        -0.373684
 H        -2.603081         0.129792         0.448755
 H        -1.913404         1.186624         2.594139
 H        -1.794570         3.937651         0.951916
 H         1.417752         4.319471         3.108807
 H         1.006781         2.782731         3.605951
 H         1.935667         3.506189         0.984281
 H         1.784934         1.823641         1.471578
 H         0.064759         3.209260        -0.280585
