19
Iteration:  3711
 O         0.162203         0.069228         0.888957
 C        -0.592228         1.218405         0.808698
 C        -2.053277         1.191695         0.386489
 C        -1.809250         1.801616         1.735365
 C        -1.182022         3.247198         1.631046
 O        -0.497986         3.859487         2.612404
 C         0.788239         3.167035         2.830581
 C         1.249984         2.868128         1.378305
 C        -0.052917         2.668243         0.580101
 H         1.140559         0.371613         0.891842
 H        -2.436839         1.814506        -0.476361
 H        -2.523700         0.167541         0.591556
 H        -2.286280         1.252017         2.595290
 H        -1.856903         3.977895         1.145303
 H         1.222698         3.914583         3.546665
 H         0.510863         2.269861         3.461453
 H         1.740123         3.811523         1.068047
 H         2.059901         1.994316         1.314661
 H        -0.128169         3.083137        -0.562860
