19
Iteration:  4745
 O         0.097039         0.071936         0.915467
 C        -0.655155         1.235075         0.797241
 C        -2.013939         1.226601         0.371103
 C        -1.759464         1.757823         1.680541
 C        -1.140773         3.236509         1.488546
 O        -0.496762         3.802926         2.746027
 C         0.721115         3.147848         2.836954
 C         1.215800         3.005832         1.423932
 C         0.024465         2.617225         0.505665
 H         0.840207         0.268302         1.574269
 H        -2.538026         1.610754        -0.503355
 H        -2.402482         0.172586         0.536053
 H        -2.081846         1.284047         2.598468
 H        -1.761731         4.107830         1.219640
 H         1.316490         3.911788         3.424933
 H         0.733898         2.194798         3.401351
 H         1.665672         3.956298         1.083846
 H         2.113441         2.288430         1.270709
 H         0.053008         2.947308        -0.633641
