19
Iteration:  4666
 O         0.136185         0.061375         0.853574
 C        -0.589328         1.229136         0.811480
 C        -2.140202         1.151427         0.375890
 C        -1.774912         1.794959         1.687149
 C        -1.181919         3.205637         1.554465
 O        -0.531988         3.764495         2.653399
 C         0.778672         3.235947         2.861689
 C         1.285851         3.002494         1.410752
 C         0.067472         2.675583         0.562994
 H         0.490858        -0.179172         1.731295
 H        -2.554978         1.789439        -0.398556
 H        -2.518490         0.155993         0.421645
 H        -2.234564         1.507083         2.726890
 H        -1.761387         4.038782         1.159197
 H         1.176443         3.944368         3.467918
 H         0.862243         2.263960         3.431938
 H         1.770940         3.803138         0.981392
 H         1.959887         2.199038         1.437182
 H         0.046905         3.183659        -0.445628
