19
Iteration:  2746charge 0 multiplicity 1
 O         0.133479         0.104862         1.064039
 C        -0.578532         1.284806         0.830143
 C        -2.052989         1.255828         0.384553
 C        -1.791532         1.797454         1.748337
 C        -1.197240         3.253878         1.539263
 O        -0.509267         3.733351         2.662140
 C         0.733550         3.033565         2.742850
 C         1.268413         3.001903         1.269764
 C         0.012918         2.635114         0.518830
 H         0.800679         0.243985         1.726501
 H        -2.565008         1.862314        -0.373156
 H        -2.417564         0.197623         0.385219
 H        -2.186139         1.381568         2.707382
 H        -1.942975         4.052662         1.136187
 H         1.346347         3.712903         3.479147
 H         0.633779         2.086429         3.220610
 H         1.653562         4.061492         1.023199
 H         2.149313         2.360791         1.027308
 H         0.056452         2.939473        -0.549872
