19
Iteration:  3696charge 0 multiplicity 1
 O         0.123068         0.118466         0.863797
 C        -0.643415         1.249811         0.864883
 C        -2.026183         1.159631         0.380334
 C        -1.682704         1.825694         1.795912
 C        -1.183733         3.220436         1.444570
 O        -0.506939         3.861554         2.681224
 C         0.710098         3.110266         2.802562
 C         1.241436         2.932743         1.356683
 C        -0.044479         2.618702         0.658117
 H         0.988505         0.402509         1.159562
 H        -2.342868         1.770217        -0.477163
 H        -2.503867         0.128703         0.299254
 H        -2.046080         1.558101         2.806482
 H        -1.877086         3.973102         1.064868
 H         1.466922         3.575774         3.400535
 H         0.593864         2.118635         3.231616
 H         1.723244         3.810288         0.944940
 H         1.894015         2.106375         1.326554
 H         0.040965         2.935572        -0.307782
