19
Iteration:   846charge 0 multiplicity 1
 O         0.260350         0.177859         0.974914
 C        -0.626270         1.207728         0.830276
 C        -2.120564         1.171441         0.487297
 C        -1.735348         1.915918         1.770603
 C        -1.202067         3.274486         1.491364
 O        -0.491373         3.887450         2.611434
 C         0.707515         3.079440         2.777350
 C         1.258350         2.878581         1.316808
 C         0.017843         2.599179         0.608925
 H        -0.220849        -0.696607         0.756677
 H        -2.577961         1.529823        -0.443924
 H        -2.511484         0.184437         0.692210
 H        -2.130946         1.581602         2.832826
 H        -1.795122         4.080948         0.957022
 H         1.414806         3.584237         3.462248
 H         0.476556         2.032073         3.119823
 H         1.786684         3.760299         0.880512
 H         1.887030         2.024051         1.223821
 H         0.035382         2.831499        -0.444829
