19
Iteration:  3724charge 0 multiplicity 1
 O         0.194062         0.020842         0.891206
 C        -0.680365         1.260435         0.760493
 C        -2.071868         1.221509         0.360051
 C        -1.736557         1.780999         1.768757
 C        -1.255027         3.199032         1.510399
 O        -0.449571         3.853244         2.687411
 C         0.738760         3.229147         2.848396
 C         1.227642         2.912753         1.420434
 C        -0.038414         2.620538         0.594463
 H         1.062326         0.327333         0.974213
 H        -2.625249         1.707373        -0.467270
 H        -2.459366         0.251673         0.418407
 H        -2.314969         1.501100         2.596331
 H        -1.988758         3.990917         1.321512
 H         1.652902         3.859460         3.097872
 H         0.832747         2.278400         3.452470
 H         1.822897         3.744343         0.928518
 H         2.034499         2.007671         1.587918
 H         0.109534         3.115971        -0.516949
