19
Iteration:  1347charge 0 multiplicity 1
 O         0.139161         0.073505         1.125968
 C        -0.655730         1.209540         0.854787
 C        -2.058980         1.288265         0.289526
 C        -1.688782         1.758477         1.741810
 C        -1.171573         3.165746         1.547037
 O        -0.529188         3.770366         2.691304
 C         0.860468         3.265892         2.744481
 C         1.218771         2.994296         1.253730
 C        -0.077437         2.597727         0.588873
 H         0.648079        -0.336366         0.459693
 H        -2.196961         2.157927        -0.480965
 H        -2.661338         0.414691         0.303859
 H        -2.203928         1.304340         2.685191
 H        -1.895136         3.899887         1.280572
 H         1.412668         4.047458         3.304931
 H         0.762091         2.374799         3.247897
 H         1.871724         3.633908         0.676347
 H         1.828845         2.144667         1.464878
 H        -0.194685         2.960845        -0.445031
