19
Iteration:   630charge 0 multiplicity 1
 O         0.234245         0.056425         0.971553
 C        -0.650836         1.252923         0.769765
 C        -2.110384         1.244065         0.474660
 C        -1.705752         1.844493         1.820583
 C        -1.135599         3.184567         1.455915
 O        -0.557884         3.899637         2.636294
 C         0.719179         3.246401         2.784136
 C         1.311327         2.841061         1.347963
 C        -0.016666         2.603393         0.579842
 H        -0.190180        -0.793452         0.952757
 H        -2.611924         2.065183        -0.287496
 H        -2.535941         0.276231         0.409811
 H        -2.127561         1.231634         2.706909
 H        -1.983491         3.793934         1.088683
 H         1.307499         3.956848         3.331855
 H         0.708635         2.243971         3.312994
 H         1.882101         3.801709         0.957914
 H         1.975160         1.983027         1.399880
 H         0.077587         3.013399        -0.585237
