19
Iteration:   255
 O         0.020283         0.004261         1.091049
 C        -0.663733         1.262248         0.834632
 C        -2.045185         1.159872         0.434679
 C        -1.751683         1.857216         1.713975
 C        -1.154252         3.254013         1.494424
 O        -0.561143         3.709835         2.640932
 C         0.823074         3.338615         2.748552
 C         1.302002         2.987616         1.341667
 C         0.063171         2.616153         0.566749
 H         0.315709        -0.225820         0.188543
 H        -2.512782         1.607155        -0.491845
 H        -2.388607         0.131741         0.591324
 H        -2.047426         1.458940         2.700934
 H        -1.822912         3.942596         0.931434
 H         1.428216         4.069879         3.279153
 H         0.944179         2.400397         3.390191
 H         1.885139         3.848463         0.836720
 H         2.076709         2.150796         1.544219
 H         0.139781         2.944933        -0.483070
