19
Iteration:  1003charge 0 multiplicity 1
 O         0.047672         0.022570         1.139805
 C        -0.647798         1.225545         0.821806
 C        -2.071303         1.236489         0.322588
 C        -1.762311         1.768888         1.704906
 C        -1.173344         3.211436         1.553317
 O        -0.534755         3.697290         2.711034
 C         0.874547         3.353810         2.704223
 C         1.336920         2.977202         1.316220
 C        -0.012013         2.652305         0.613010
 H         0.165159        -0.412635         0.258305
 H        -2.379787         1.963477        -0.562600
 H        -2.423238         0.231807         0.170152
 H        -1.968155         1.359240         2.737069
 H        -2.009367         3.915691         1.177039
 H         1.295293         4.313798         2.929751
 H         1.246877         2.567914         3.329610
 H         1.733885         3.833173         0.720941
 H         1.883999         2.041357         1.409601
 H        -0.038332         3.020236        -0.393908
