19
Iteration:   436
 O         0.105829         0.148315         1.081826
 C        -0.618084         1.292948         0.807072
 C        -2.028380         1.103042         0.372258
 C        -1.788569         1.860174         1.713647
 C        -1.156340         3.190622         1.465616
 O        -0.457215         3.786849         2.644042
 C         0.825460         3.193558         2.828718
 C         1.218731         2.944074         1.374574
 C        -0.040310         2.626905         0.535241
 H        -0.258766        -0.652943         0.649325
 H        -2.257847         1.671267        -0.527087
 H        -2.450591         0.134663         0.619149
 H        -2.030012         1.606691         2.923384
 H        -1.862864         3.905742         0.968480
 H         1.514044         4.031376         3.298496
 H         0.920895         2.323113         3.489487
 H         1.422078         3.891053         0.858303
 H         1.959952         2.179939         1.234454
 H        -0.029342         2.879802        -0.481848
