19
Iteration:  2344
 O         0.161540        -0.000958         0.836477
 C        -0.649608         1.168657         0.816956
 C        -2.046278         1.289135         0.450557
 C        -1.678556         1.770390         1.813424
 C        -1.143327         3.212894         1.564262
 O        -0.604620         3.912379         2.588540
 C         0.778275         3.334640         2.789301
 C         1.222935         2.841929         1.406366
 C        -0.034375         2.581234         0.691794
 H         0.931402         0.150735         0.230993
 H        -2.295714         1.972311        -0.483580
 H        -2.671368         0.348933         0.462845
 H        -1.958941         1.237126         2.691151
 H        -1.895421         3.789465         1.018380
 H         1.351056         4.138964         3.248057
 H         0.755383         2.516417         3.658685
 H         1.829809         3.536038         0.720464
 H         1.953998         2.049822         1.467925
 H        -0.052787         2.756062        -0.397126
