19
Iteration:  1606
 O         0.169929         0.145726         1.112738
 C        -0.672975         1.179692         0.794304
 C        -2.174197         1.111062         0.339313
 C        -1.707586         1.787346         1.690645
 C        -1.144033         3.265936         1.479527
 O        -0.485263         3.822511         2.648712
 C         0.836800         3.155287         2.789723
 C         1.230455         2.956237         1.343787
 C        -0.034552         2.682304         0.620352
 H         0.717436        -0.043098         0.293276
 H        -2.796260         1.543523        -0.468997
 H        -2.281669         0.100370         0.639697
 H        -2.281956         1.559583         2.562213
 H        -1.885224         4.090012         1.242941
 H         1.347320         3.906954         3.329313
 H         0.779587         2.196242         3.458284
 H         1.810200         3.795323         0.997840
 H         1.992598         2.017393         1.241533
 H        -0.110184         3.154750        -0.358378
