19
Iteration:  2878charge 0 multiplicity 1
 O         0.022489        -0.017654         0.757833
 C        -0.601406         1.211776         0.796461
 C        -2.040935         1.221602         0.453767
 C        -1.713423         1.751138         1.795579
 C        -1.104828         3.153321         1.527932
 O        -0.539584         3.841065         2.603412
 C         0.759043         3.325056         2.858531
 C         1.264458         3.044324         1.408676
 C         0.037377         2.536156         0.651452
 H         0.644681         0.116375         1.472886
 H        -2.551421         2.040354        -0.192379
 H        -2.489751         0.305319         0.385313
 H        -2.227204         1.475582         2.714791
 H        -1.840762         3.850047         1.001704
 H         1.352166         4.140658         3.410832
 H         0.649231         2.340272         3.358065
 H         1.618298         4.026980         0.942254
 H         2.048717         2.240596         1.429036
 H         0.116389         2.826502        -0.412642
