19
Iteration:  1315charge 0 multiplicity 1
 O         0.209878         0.186637         1.090199
 C        -0.702246         1.240080         0.878353
 C        -2.029555         1.162328         0.414481
 C        -1.760240         1.859628         1.690490
 C        -1.173608         3.250821         1.476168
 O        -0.498758         3.724517         2.623627
 C         0.827099         3.094023         2.794595
 C         1.237651         2.987532         1.315825
 C        -0.079228         2.627019         0.582063
 H         0.089293        -0.570509         0.394997
 H        -2.354710         1.803078        -0.523750
 H        -2.491477         0.189687         0.559496
 H        -2.254731         1.661965         2.726291
 H        -1.854851         3.991580         1.116929
 H         1.494320         3.865007         3.413556
 H         0.817650         2.163694         3.334665
 H         1.633460         3.922847         0.822585
 H         2.018968         2.265476         1.163873
 H        -0.058701         2.938540        -0.438953
