19
Iteration:  4375charge 0 multiplicity 1
 O         0.155755         0.027514         0.889757
 C        -0.665142         1.258860         0.725606
 C        -2.115280         1.170125         0.370007
 C        -1.613717         1.794315         1.697314
 C        -1.170916         3.258463         1.544986
 O        -0.595595         3.780222         2.673038
 C         0.803999         3.171759         2.881903
 C         1.260977         2.968875         1.402396
 C        -0.018489         2.686431         0.576363
 H         0.721026        -0.056097         1.621852
 H        -2.561608         1.697812        -0.552362
 H        -2.671677         0.172854         0.633989
 H        -2.071385         1.332170         2.591196
 H        -1.926056         4.036923         1.266539
 H         1.437789         4.120287         3.159118
 H         0.822799         2.402770         3.619982
 H         1.750084         3.931452         1.105016
 H         1.922812         2.181907         1.408403
 H         0.086542         3.011450        -0.441944
