19
Iteration:  1229charge 0 multiplicity 1
 O         0.154614         0.047978         0.981929
 C        -0.581367         1.132534         0.835164
 C        -2.101566         1.208238         0.408616
 C        -1.730333         1.796110         1.759727
 C        -1.175348         3.216141         1.540040
 O        -0.463806         3.892542         2.621729
 C         0.744243         3.244251         2.782728
 C         1.253561         2.912020         1.349779
 C        -0.074694         2.654668         0.635693
 H         0.617085         0.056826         0.123326
 H        -2.398578         1.791118        -0.477937
 H        -2.616715         0.321406         0.491809
 H        -2.278215         1.239207         2.602225
 H        -1.872357         3.929701         1.155708
 H         1.423629         4.036992         3.204672
 H         0.629778         2.259368         3.232111
 H         1.954084         3.703730         0.877437
 H         1.800191         2.019063         1.524602
 H        -0.071502         3.092645        -0.319346
