19
Iteration:  4516charge 0 multiplicity 1
 O         0.209156         0.021740         0.887527
 C        -0.666603         1.226592         0.828824
 C        -2.003194         1.281767         0.283057
 C        -1.746315         1.732898         1.772459
 C        -1.146915         3.175830         1.560151
 O        -0.500988         3.830816         2.676911
 C         0.785406         3.236585         2.806299
 C         1.207871         2.967082         1.378820
 C        -0.080219         2.667058         0.606245
 H         0.427064        -0.117333         1.791926
 H        -2.391964         1.845226        -0.622335
 H        -2.478964         0.361557         0.243374
 H        -2.343626         1.273651         2.669031
 H        -1.894149         3.861474         1.183233
 H         1.501544         3.956104         3.399218
 H         0.586429         2.225798         3.327789
 H         1.555769         3.819267         0.837708
 H         1.982397         2.093535         1.504943
 H        -0.217765         3.051246        -0.393421
