19
Iteration:   101
 O         0.181272         0.129930         0.973729
 C        -0.633223         1.230177         0.864461
 C        -2.057106         1.167711         0.393218
 C        -1.634657         1.778282         1.808463
 C        -1.113786         3.283794         1.442235
 O        -0.495106         3.897293         2.552134
 C         0.709263         3.247276         2.864025
 C         1.156784         2.816548         1.402886
 C        -0.063003         2.560584         0.606815
 H        -0.220511        -0.525895         0.314815
 H        -2.410935         1.890558        -0.378397
 H        -2.422655         0.127772         0.401572
 H        -1.845197         1.440500         2.844948
 H        -1.744654         3.988830         0.876992
 H         1.267427         4.042294         3.339197
 H         0.532579         2.372778         3.548818
 H         1.785416         3.652186         0.987911
 H         1.974225         2.083271         1.234877
 H        -0.009413         2.949887        -0.359640
