19
Iteration:  1715charge 0 multiplicity 1
 O         0.167344         0.021281         0.930485
 C        -0.579875         1.195945         0.841599
 C        -2.018133         1.322930         0.428280
 C        -1.669680         1.777717         1.804770
 C        -1.154211         3.195350         1.470576
 O        -0.544938         3.806067         2.583875
 C         0.751122         3.342620         2.813524
 C         1.217103         2.932066         1.377255
 C        -0.042618         2.588726         0.669745
 H        -0.329205        -0.600567         0.307947
 H        -2.549831         1.885561        -0.334032
 H        -2.529791         0.302739         0.229254
 H        -2.175383         1.466547         2.761321
 H        -2.009627         3.808689         1.180244
 H         1.242697         4.160472         3.294890
 H         0.858010         2.322045         3.320038
 H         1.806463         3.623205         0.923373
 H         1.916284         2.035960         1.383661
 H         0.027215         2.961154        -0.354805
