19
Iteration:   354charge 0 multiplicity 1
 O         0.166417         0.042120         0.936738
 C        -0.670131         1.196132         0.751890
 C        -2.150177         1.101184         0.544989
 C        -1.737320         1.833143         1.740419
 C        -1.082062         3.292609         1.467708
 O        -0.611571         3.930630         2.611375
 C         0.778910         3.210941         2.813042
 C         1.364211         2.937375         1.476502
 C         0.031363         2.691949         0.553794
 H        -0.138233        -0.798632         0.682857
 H        -2.816129         1.482536        -0.331633
 H        -2.451818         0.075305         0.728204
 H        -2.055271         1.570543         2.641438
 H        -1.825656         3.851277         0.902073
 H         1.428151         3.820805         3.353843
 H         0.647868         2.148797         3.222072
 H         2.114568         3.633440         0.918730
 H         1.954990         1.974549         1.270732
 H         0.100322         2.995703        -0.528148
