19
Iteration:  3584charge 0 multiplicity 1
 O         0.076416         0.050556         0.901628
 C        -0.705152         1.230297         0.773271
 C        -1.993985         1.191357         0.336428
 C        -1.748977         1.776273         1.699308
 C        -1.140211         3.263420         1.523199
 O        -0.558383         3.739184         2.721257
 C         0.888472         3.284751         2.778880
 C         1.289222         2.932807         1.370684
 C        -0.069981         2.620335         0.687293
 H         0.925691         0.269993         1.363720
 H        -2.451535         1.741127        -0.443609
 H        -2.472492         0.184271         0.425628
 H        -2.294150         1.490764         2.666662
 H        -2.003565         3.879586         1.112919
 H         1.516545         4.112966         3.241871
 H         0.800217         2.421146         3.464020
 H         1.613982         3.906560         0.934094
 H         2.166349         2.407199         1.383205
 H        -0.074303         2.817828        -0.338881
