19
Iteration:  1355charge 0 multiplicity 1
 O         0.042174         0.073111         1.108113
 C        -0.581650         1.179370         0.784868
 C        -2.028627         1.245468         0.285376
 C        -1.648541         1.764105         1.785009
 C        -1.199242         3.193376         1.574613
 O        -0.497711         3.770647         2.656036
 C         0.845100         3.322238         2.776990
 C         1.253104         2.957277         1.275570
 C        -0.118884         2.625040         0.631280
 H         0.661665        -0.165174         0.452437
 H        -2.262228         1.876491        -0.528403
 H        -2.642745         0.327259         0.116135
 H        -2.233447         1.338290         2.652136
 H        -1.976199         3.930062         1.181597
 H         1.418599         4.037417         3.256011
 H         0.984550         2.390146         3.476484
 H         1.681594         3.816203         0.835796
 H         1.899212         2.009247         1.256679
 H        -0.246119         2.961391        -0.471937
