19
Iteration:   132charge 0 multiplicity 1
 O         0.306123         0.204419         0.989339
 C        -0.593305         1.200787         0.795211
 C        -2.082260         1.139439         0.512022
 C        -1.757075         1.891631         1.738067
 C        -1.287388         3.317186         1.444030
 O        -0.466667         3.890046         2.587309
 C         0.693798         3.074203         2.751957
 C         1.277185         2.863342         1.399605
 C        -0.036032         2.568823         0.582410
 H        -0.209881        -0.574022         1.183895
 H        -2.510163         1.588183        -0.384678
 H        -2.470040         0.196841         0.739175
 H        -2.227552         1.807409         2.700886
 H        -1.823680         4.109644         0.980501
 H         1.372541         3.463116         3.567944
 H         0.545032         1.994433         2.946419
 H         1.770451         3.756680         1.133351
 H         1.763020         1.911937         1.375705
 H         0.042961         3.045687        -0.345947
