19
Iteration:  3075charge 0 multiplicity 1
 O         0.111215         0.050698         0.896536
 C        -0.639194         1.240422         0.866569
 C        -2.049253         1.160923         0.350009
 C        -1.892588         1.817777         1.652029
 C        -1.151534         3.236267         1.561152
 O        -0.502918         3.707456         2.691288
 C         0.889286         3.335165         2.816042
 C         1.217811         2.939352         1.374229
 C        -0.002066         2.628270         0.598563
 H         0.870917         0.335319         1.402672
 H        -2.452619         1.659994        -0.515910
 H        -2.702363         0.127230         0.344764
 H        -2.164926         1.433900         2.688239
 H        -1.725998         4.107464         1.271727
 H         1.485689         4.188580         3.148032
 H         1.013486         2.428611         3.534352
 H         1.733177         3.729125         0.905443
 H         1.973856         2.116217         1.439697
 H         0.013491         2.904103        -0.443076
