19
Iteration:  1723
 O         0.162241         0.066425         0.946175
 C        -0.617330         1.210174         0.867882
 C        -2.056753         1.274849         0.365959
 C        -1.633359         1.712679         1.801464
 C        -1.155510         3.186191         1.525944
 O        -0.554395         3.835149         2.608116
 C         0.749356         3.329769         2.773314
 C         1.234949         2.883378         1.397685
 C        -0.043406         2.603520         0.621987
 H        -0.057967        -0.706054         0.324020
 H        -2.221447         2.227480        -0.246695
 H        -2.633787         0.375200         0.339672
 H        -2.194845         1.498308         2.700355
 H        -1.878929         3.813110         1.043227
 H         1.469743         4.075890         3.171681
 H         0.702608         2.572281         3.514687
 H         1.753242         3.678256         0.775670
 H         1.871276         2.034443         1.422059
 H        -0.014988         3.063226        -0.352753
