19
Iteration:  3829
 O         0.102708         0.095542         0.897714
 C        -0.612616         1.244131         0.865205
 C        -2.044172         1.204965         0.376983
 C        -1.708737         1.759253         1.752059
 C        -1.143731         3.216114         1.573271
 O        -0.544596         3.785594         2.690026
 C         0.683085         3.167566         2.802319
 C         1.285960         2.900679         1.273310
 C        -0.042663         2.678081         0.563744
 H         0.948729         0.268168         1.325787
 H        -2.247325         1.999246        -0.485064
 H        -2.329986         0.133900         0.400044
 H        -2.157849         1.702261         2.848523
 H        -1.797554         4.045307         1.177455
 H         1.403212         3.875584         3.315358
 H         0.796256         2.266494         3.387280
 H         1.781474         3.888757         1.130639
 H         2.027233         2.138308         1.212062
 H        -0.115093         2.993311        -0.395351
