19
Iteration:  3524
 O         0.120508         0.043324         0.804339
 C        -0.566777         1.214282         0.867789
 C        -2.047882         1.241684         0.399859
 C        -1.666285         1.736657         1.813177
 C        -1.138985         3.212710         1.520920
 O        -0.495261         3.912321         2.609557
 C         0.678337         3.161044         2.873800
 C         1.231237         2.964030         1.403248
 C        -0.069402         2.631405         0.523938
 H         0.601520         0.012103         1.703336
 H        -2.485482         1.995040        -0.316811
 H        -2.468157         0.263530         0.431458
 H        -1.918346         1.353753         2.755884
 H        -1.959798         3.825050         1.243403
 H         1.451270         3.625482         3.425037
 H         0.419234         2.192937         3.351923
 H         1.552821         3.921632         1.010448
 H         2.036278         2.094881         1.336910
 H        -0.023023         2.951176        -0.599012
