19
Iteration:   314charge 0 multiplicity 1
 O         0.221935         0.101622         0.966163
 C        -0.628851         1.254692         0.887730
 C        -2.050633         1.230027         0.451935
 C        -1.673686         1.800347         1.911178
 C        -1.171194         3.203301         1.438404
 O        -0.551132         3.999148         2.498491
 C         0.758980         3.134741         2.817601
 C         1.225923         2.793628         1.364992
 C        -0.038450         2.580116         0.590050
 H         0.019092        -0.287870         0.042104
 H        -2.367953         2.006306        -0.171454
 H        -2.540431         0.191267         0.379130
 H        -2.320701         1.388071         2.744952
 H        -1.911641         3.872448         0.935976
 H         1.292264         3.864443         3.427278
 H         0.440449         2.257464         3.391040
 H         1.793220         3.708338         1.049297
 H         1.925658         1.968093         1.431144
 H         0.131236         2.929089        -0.397550
