19
Iteration:  1992
 O         0.133067         0.137919         0.950935
 C        -0.522343         1.308703         0.789248
 C        -2.050589         1.106018         0.503038
 C        -1.682307         1.890344         1.748956
 C        -1.233510         3.288862         1.547255
 O        -0.538249         3.846351         2.613111
 C         0.740106         3.156609         2.817301
 C         1.254365         2.879483         1.399763
 C        -0.004560         2.582181         0.545715
 H        -0.137165        -0.454149         0.277291
 H        -2.625278         1.505920        -0.402099
 H        -2.436649         0.017658         0.641768
 H        -1.949282         1.529783         2.806536
 H        -1.854413         4.094718         1.015709
 H         1.342921         3.855944         3.456163
 H         0.661334         2.158724         3.224962
 H         1.816051         3.711966         0.892374
 H         1.826109         1.912708         1.201630
 H         0.081453         2.847504        -0.541998
