19
Iteration:  4028
 O         0.140518         0.081489         0.813264
 C        -0.611901         1.263652         0.799728
 C        -2.097454         1.167339         0.423707
 C        -1.700379         1.670553         1.732221
 C        -1.157743         3.205287         1.568828
 O        -0.525813         3.937886         2.650365
 C         0.739586         3.192320         2.827926
 C         1.310353         2.907143         1.385108
 C        -0.045773         2.666440         0.621206
 H         0.576464        -0.011849         1.645979
 H        -2.564598         1.936921        -0.248425
 H        -2.636144         0.210861         0.196146
 H        -1.942862         1.473128         2.683195
 H        -2.017403         3.714640         1.033144
 H         1.418377         3.822776         3.552424
 H         0.484592         2.214295         3.254479
 H         1.720924         3.806771         1.047375
 H         2.030637         2.085611         1.280486
 H         0.107680         3.032269        -0.367260
