19
Iteration:  3777
 O         0.082612        -0.024062         0.790536
 C        -0.623665         1.240435         0.850814
 C        -2.057138         1.181015         0.394326
 C        -1.678612         1.734797         1.752045
 C        -1.136036         3.263138         1.518749
 O        -0.608402         3.826265         2.637127
 C         0.869333         3.257711         2.866665
 C         1.225721         3.024097         1.385277
 C        -0.028474         2.627958         0.651608
 H         0.247640        -0.416799         1.615745
 H        -2.344051         2.034265        -0.341929
 H        -2.630545         0.264192         0.429593
 H        -1.897674         1.315211         2.701132
 H        -1.739103         4.033912         0.983591
 H         1.551064         3.971655         3.455370
 H         0.863697         2.197386         3.224965
 H         1.642673         3.896976         0.848867
 H         2.061785         2.249990         1.423845
 H         0.050308         3.130408        -0.416754
