19
Iteration:  1154
 O         0.131368         0.021781         0.858390
 C        -0.622858         1.136907         0.824402
 C        -2.042710         1.197230         0.340001
 C        -1.670565         1.777025         1.788951
 C        -1.127923         3.238390         1.608364
 O        -0.540904         3.830384         2.654886
 C         0.786682         3.449218         2.748062
 C         1.245770         2.931517         1.427042
 C        -0.059931         2.546346         0.677009
 H        -0.505094        -0.603949         0.382634
 H        -2.329370         1.884123        -0.488518
 H        -2.703514         0.420146         0.382373
 H        -2.220100         1.393992         2.722006
 H        -1.810532         3.969157         1.116950
 H         1.482398         4.234425         3.097554
 H         0.888143         2.596397         3.513530
 H         1.823587         3.725867         0.832356
 H         1.999381         2.196662         1.545472
 H         0.082275         2.693111        -0.471563
