19
Iteration:  3462charge 0 multiplicity 1
 O         0.122696         0.050903         0.818601
 C        -0.648575         1.250685         0.791590
 C        -2.057913         1.181120         0.453962
 C        -1.710082         1.855950         1.699174
 C        -1.182244         3.234206         1.485182
 O        -0.561359         3.732211         2.677694
 C         0.766610         3.259278         2.782148
 C         1.272090         2.871201         1.433453
 C         0.001384         2.641750         0.624199
 H         1.007148         0.026462         1.284291
 H        -2.516495         1.667171        -0.422883
 H        -2.506645         0.323724         0.860432
 H        -2.045423         1.613545         2.636996
 H        -1.919462         4.122138         1.279531
 H         1.302408         4.103736         3.329510
 H         0.833174         2.521507         3.600366
 H         1.719887         3.794286         0.971268
 H         1.965763         2.090449         1.413929
 H         0.129857         3.133792        -0.333705
