19
Iteration:  2810charge 0 multiplicity 1
 O         0.196135         0.153197         0.941549
 C        -0.710214         1.193454         0.854615
 C        -2.094843         1.225422         0.375159
 C        -1.690100         1.828482         1.764647
 C        -1.168361         3.189110         1.478810
 O        -0.529067         3.697543         2.591843
 C         0.758919         3.224231         2.836897
 C         1.261955         2.900164         1.322895
 C        -0.008920         2.691021         0.654978
 H         0.696259        -0.023806         1.784278
 H        -2.505697         2.072165        -0.319097
 H        -2.666536         0.168106         0.337659
 H        -2.207617         1.379633         2.614478
 H        -1.808834         4.049624         1.212474
 H         1.417101         4.097786         3.224819
 H         0.710436         2.264580         3.446999
 H         1.812818         3.875893         0.926261
 H         1.892170         2.010332         1.028686
 H         0.058026         2.933144        -0.443666
