19
Iteration:   129
 O         0.294543         0.190951         0.981627
 C        -0.584955         1.194193         0.798709
 C        -2.068535         1.134835         0.501560
 C        -1.760316         1.869501         1.737688
 C        -1.288425         3.295953         1.476216
 O        -0.462344         3.941191         2.593811
 C         0.712071         3.081227         2.730888
 C         1.263343         2.849225         1.425508
 C        -0.050026         2.588749         0.572451
 H        -0.321786        -0.667778         1.081059
 H        -2.420375         1.600844        -0.411124
 H        -2.465709         0.225080         0.797310
 H        -2.259322         1.755486         2.618584
 H        -1.958162         4.018338         1.021797
 H         1.361897         3.534280         3.572887
 H         0.426388         2.042744         2.978830
 H         1.978169         3.597976         1.157204
 H         1.881437         1.992963         1.362473
 H         0.047245         3.099171        -0.497530
