19
Iteration:   107charge 0 multiplicity 1
 O         0.213001         0.119970         0.966611
 C        -0.644342         1.249645         0.887259
 C        -2.049218         1.136178         0.376145
 C        -1.659949         1.796214         1.815425
 C        -1.098337         3.308321         1.497399
 O        -0.489282         3.917851         2.524045
 C         0.644366         3.214765         2.879297
 C         1.176606         2.801099         1.350441
 C        -0.044313         2.599517         0.615781
 H        -0.208044        -0.574293         0.519914
 H        -2.451822         1.778735        -0.389252
 H        -2.376724         0.119870         0.457650
 H        -1.909749         1.401894         2.773339
 H        -1.697483         4.051602         0.976301
 H         1.388801         3.911057         3.380669
 H         0.544547         2.289770         3.439569
 H         1.722063         3.649909         0.977124
 H         1.826002         1.937670         1.216190
 H        -0.057215         3.033127        -0.453964
