19
Iteration:  4664charge 0 multiplicity 1
 O         0.135580         0.063406         0.848340
 C        -0.584806         1.244757         0.803835
 C        -2.135814         1.156299         0.382572
 C        -1.764979         1.791858         1.687764
 C        -1.189717         3.201991         1.551082
 O        -0.539622         3.775028         2.661191
 C         0.760578         3.221369         2.848216
 C         1.308111         2.987580         1.407530
 C         0.062737         2.661704         0.566052
 H         0.455369        -0.140351         1.806879
 H        -2.564220         1.773728        -0.419601
 H        -2.587500         0.046512         0.364592
 H        -2.155602         1.622040         2.747255
 H        -1.842070         4.020191         1.160530
 H         1.211928         3.972641         3.524982
 H         0.922884         2.315323         3.449739
 H         1.824131         3.840233         1.016541
 H         1.950470         2.212342         1.398168
 H         0.028445         3.197206        -0.369467
