19
Iteration:  1223
 O         0.142840        -0.011526         0.957478
 C        -0.607565         1.190908         0.843591
 C        -2.100315         1.189042         0.410098
 C        -1.728884         1.802248         1.738658
 C        -1.121102         3.199954         1.567071
 O        -0.464216         3.888773         2.646748
 C         0.732274         3.298791         2.743602
 C         1.226979         2.924045         1.367671
 C        -0.060079         2.642777         0.614014
 H         0.714581        -0.111183         0.212686
 H        -2.517702         1.801495        -0.404541
 H        -2.624547         0.136042         0.368132
 H        -2.253332         1.332202         2.495013
 H        -1.872596         3.987610         1.228491
 H         1.352244         4.003863         3.263926
 H         0.773387         2.478875         3.576339
 H         1.933753         3.634880         1.003923
 H         1.901724         1.998071         1.416978
 H        -0.107886         3.193945        -0.433141
