19
Iteration:   713
 O         0.136980         0.096443         1.121887
 C        -0.610744         1.225725         0.815538
 C        -2.061807         1.277882         0.425864
 C        -1.664971         1.807950         1.767367
 C        -1.128932         3.200604         1.531827
 O        -0.481317         3.878191         2.594772
 C         0.724706         3.163144         2.783097
 C         1.155314         2.880166         1.292150
 C        -0.063105         2.609207         0.518634
 H         0.608032        -0.381890         0.349546
 H        -2.352062         2.021857        -0.264319
 H        -2.553986         0.321949         0.290311
 H        -2.014924         1.163572         2.685240
 H        -1.894854         3.981844         1.292797
 H         1.464358         3.865381         3.250152
 H         0.716431         2.287629         3.519557
 H         1.685261         3.748422         0.979097
 H         1.900247         2.070848         1.141546
 H        -0.003484         2.820407        -0.510698
