19
Iteration:   463charge 0 multiplicity 1
 O         0.167800         0.081152         1.155101
 C        -0.603636         1.287448         0.800665
 C        -2.156354         1.187990         0.453820
 C        -1.688193         1.857583         1.699483
 C        -1.163899         3.268836         1.438511
 O        -0.615278         3.746450         2.718164
 C         0.758188         3.129655         2.702908
 C         1.340881         2.945480         1.294494
 C         0.038589         2.705745         0.572963
 H         0.307934        -0.539986         0.370803
 H        -2.554780         1.639826        -0.451531
 H        -2.660800         0.193395         0.800396
 H        -1.990600         1.688624         2.647726
 H        -1.838483         3.906508         0.868223
 H         1.338024         3.801300         3.290659
 H         0.809839         2.200313         3.287589
 H         1.836170         3.778895         0.784827
 H         1.953983         2.003436         1.269974
 H        -0.095749         2.963199        -0.576086
