19
Iteration:  3804charge 0 multiplicity 1
 O         0.102142         0.011378         0.854848
 C        -0.589699         1.218738         0.766776
 C        -2.058908         1.249883         0.383783
 C        -1.698530         1.741246         1.730905
 C        -1.207406         3.172430         1.645736
 O        -0.535620         3.862701         2.616301
 C         0.827774         3.217987         2.831238
 C         1.203384         3.007014         1.379826
 C         0.004177         2.612654         0.582945
 H         0.464600        -0.082236         1.698672
 H        -2.304512         1.930978        -0.300682
 H        -2.528169         0.225574         0.446601
 H        -2.300468         1.571548         2.698400
 H        -1.936059         3.902465         1.310061
 H         1.478160         3.773713         3.432539
 H         0.772380         2.187556         3.163860
 H         1.579413         3.968264         0.917756
 H         2.038656         2.332579         1.457026
 H         0.152965         3.027053        -0.419013
