19
Iteration:  1403charge 0 multiplicity 1
 O         0.139020         0.040455         0.921464
 C        -0.636057         1.174001         0.855903
 C        -2.111401         1.207216         0.468864
 C        -1.688649         1.861713         1.818441
 C        -1.110327         3.194631         1.477446
 O        -0.590358         3.777029         2.601586
 C         0.767137         3.279818         2.783421
 C         1.318370         2.963479         1.380421
 C         0.027429         2.602062         0.594479
 H         0.046414        -0.497480         0.073756
 H        -2.537240         1.803604        -0.421317
 H        -2.775897         0.362490         0.633782
 H        -2.077012         1.451685         2.719994
 H        -1.853185         3.847198         1.094292
 H         1.355672         4.126980         3.264219
 H         0.786014         2.525981         3.487017
 H         1.499907         3.957930         0.964285
 H         2.136466         2.350477         1.463593
 H         0.097989         3.056663        -0.386617
