19
Iteration:   393
 O         0.230694         0.059755         1.000403
 C        -0.629930         1.165518         0.890159
 C        -2.012522         1.314995         0.385868
 C        -1.708106         1.829395         1.778179
 C        -1.180015         3.200114         1.502220
 O        -0.557566         3.903329         2.623802
 C         0.809278         3.196204         2.757339
 C         1.198937         2.897895         1.305808
 C        -0.065184         2.559892         0.606226
 H        -0.260715        -0.810954         0.832314
 H        -2.210845         1.967090        -0.476186
 H        -2.579236         0.400587         0.352655
 H        -2.339507         1.447547         2.757909
 H        -1.813972         3.978624         1.026466
 H         1.532730         3.930593         3.288029
 H         0.621340         2.428544         3.484872
 H         1.691878         3.810490         1.049791
 H         1.921422         2.097742         1.263745
 H        -0.024049         2.841002        -0.467012
