19
Iteration:  2228
 O         0.179071         0.085853         0.995700
 C        -0.605502         1.182636         0.880785
 C        -2.001577         1.121459         0.339613
 C        -1.731002         1.830504         1.741164
 C        -1.164270         3.250449         1.568511
 O        -0.446458         3.883500         2.649636
 C         0.722293         3.158882         2.748175
 C         1.227090         2.999173         1.350840
 C        -0.119586         2.666968         0.614317
 H        -0.140000        -0.768966         0.573979
 H        -2.251315         1.801693        -0.405805
 H        -2.753804         0.223801         0.298978
 H        -2.121416         1.290558         2.582944
 H        -1.966332         3.936306         1.171516
 H         1.536242         3.711809         3.461054
 H         0.607374         2.171073         3.110842
 H         1.566312         3.895608         0.974310
 H         2.104345         2.259107         1.245924
 H         0.026442         2.921948        -0.446362
