19
Iteration:   955charge 0 multiplicity 1
 O         0.073663        -0.116731         0.940698
 C        -0.659056         1.168551         0.906329
 C        -2.112587         1.308949         0.367313
 C        -1.752028         1.739109         1.714090
 C        -1.132768         3.242161         1.551900
 O        -0.551475         3.764360         2.680327
 C         0.864490         3.510179         2.777994
 C         1.331068         2.967181         1.327908
 C         0.009007         2.546466         0.649738
 H         0.595745        -0.047493         0.164727
 H        -2.490347         2.007693        -0.278735
 H        -2.770536         0.425558         0.530643
 H        -2.235010         1.427838         2.620028
 H        -1.824096         3.854967         0.982003
 H         1.403736         4.370598         3.186443
 H         0.929475         2.673189         3.434573
 H         1.753020         3.775289         0.789087
 H         1.943626         2.116789         1.396271
 H         0.012718         2.697911        -0.489801
