19
Iteration:  1226
 O         0.144135         0.019908         0.973465
 C        -0.581693         1.150344         0.841572
 C        -2.102316         1.205709         0.412094
 C        -1.730249         1.806637         1.747630
 C        -1.145589         3.206828         1.549552
 O        -0.455525         3.890252         2.636279
 C         0.725427         3.271259         2.757353
 C         1.239280         2.925455         1.354207
 C        -0.070789         2.651466         0.624207
 H         0.701789        -0.011510         0.104896
 H        -2.467526         1.785168        -0.445007
 H        -2.667881         0.151549         0.412705
 H        -2.294022         1.239711         2.543586
 H        -1.860236         3.951866         1.211961
 H         1.392968         4.056933         3.233776
 H         0.703139         2.347125         3.417472
 H         1.939014         3.623049         0.968644
 H         1.871044         1.993683         1.487186
 H        -0.090928         3.154073        -0.317757
