19
Iteration:  2637charge 0 multiplicity 1
 O         0.145726         0.050896         0.770824
 C        -0.635859         1.186457         0.832964
 C        -2.079515         1.266066         0.471295
 C        -1.594538         1.735001         1.833809
 C        -1.071661         3.174165         1.556552
 O        -0.528787         3.938662         2.592316
 C         0.655988         3.300776         2.818262
 C         1.239882         2.924035         1.367856
 C         0.015898         2.572552         0.578403
 H        -0.142263        -0.651448         1.357472
 H        -2.470172         1.912984        -0.210822
 H        -2.529642         0.212354         0.466462
 H        -2.111071         1.355721         2.727407
 H        -1.970352         3.774283         1.167651
 H         1.185851         3.871377         3.707064
 H         0.379365         2.361309         3.414483
 H         1.785339         3.821962         0.959870
 H         1.859898         2.044491         1.313822
 H         0.041001         3.027117        -0.427349
