19
Iteration:  4977charge 0 multiplicity 1
 O         0.130929         0.064274         0.868972
 C        -0.584538         1.296638         0.809702
 C        -2.027322         1.146340         0.454894
 C        -1.739073         1.833297         1.742206
 C        -1.130062         3.247276         1.435556
 O        -0.528110         3.821430         2.631562
 C         0.705468         3.019128         2.856647
 C         1.261542         3.009858         1.463405
 C        -0.047443         2.676716         0.595834
 H         0.991107         0.384963         1.220747
 H        -2.489005         1.804952        -0.344417
 H        -2.424860         0.104652         0.517722
 H        -2.435876         1.578909         2.483702
 H        -1.880954         3.959700         1.038741
 H         1.364059         3.713738         3.559238
 H         0.471010         2.007774         3.325766
 H         1.860639         3.883277         1.079362
 H         1.942801         2.125342         1.150609
 H        -0.055043         2.978827        -0.534024
