19
Iteration:   720
 O         0.066987         0.096905         1.144750
 C        -0.609226         1.221935         0.787005
 C        -2.036501         1.260522         0.430093
 C        -1.678561         1.717518         1.752884
 C        -1.143271         3.216843         1.510459
 O        -0.457429         3.857546         2.609740
 C         0.757977         3.166365         2.755887
 C         1.191176         2.941743         1.314645
 C        -0.067635         2.647523         0.573892
 H         0.552665        -0.280230         0.345473
 H        -2.441824         1.984037        -0.275160
 H        -2.570917         0.232189         0.327615
 H        -2.096031         1.239011         2.532855
 H        -1.889634         3.896198         1.161292
 H         1.427953         3.971131         3.181178
 H         0.831476         2.330503         3.455039
 H         1.677566         3.762656         0.743435
 H         1.851750         2.030771         1.319656
 H         0.187233         2.961507        -0.544110
