19
Iteration:  1622charge 0 multiplicity 1
 O         0.239955         0.158727         1.096830
 C        -0.654033         1.308701         0.782222
 C        -2.048912         1.121720         0.402472
 C        -1.749910         1.823784         1.720400
 C        -1.210873         3.240601         1.564207
 O        -0.465945         3.856345         2.635023
 C         0.757805         3.151912         2.782890
 C         1.222843         2.803540         1.356558
 C        -0.106371         2.672183         0.534718
 H         0.554040        -0.279095         0.323288
 H        -2.307303         1.761597        -0.440616
 H        -2.667876         0.202856         0.418514
 H        -2.068209         1.317501         2.659599
 H        -1.904468         3.984511         1.158332
 H         1.497876         3.854162         3.254928
 H         0.566969         2.311945         3.372797
 H         1.778289         3.693275         0.892226
 H         1.874940         1.974302         1.284632
 H         0.019427         2.940357        -0.538766
