19
Iteration:  3752charge 0 multiplicity 1
 O         0.093894         0.020959         0.798997
 C        -0.652919         1.294491         0.825364
 C        -2.027686         1.226033         0.406197
 C        -1.723533         1.779109         1.798688
 C        -1.140420         3.200824         1.534892
 O        -0.566415         3.769130         2.664953
 C         0.709879         3.296721         2.878496
 C         1.336163         2.913461         1.350263
 C         0.008909         2.628438         0.556469
 H         0.691930        -0.009468         1.533417
 H        -2.447919         1.865692        -0.409007
 H        -2.536685         0.170659         0.668699
 H        -2.237028         1.203685         2.670168
 H        -1.804347         4.015096         1.140369
 H         1.426970         4.057281         3.154658
 H         0.802842         2.408171         3.489800
 H         1.772007         3.760857         0.831359
 H         2.093983         2.202955         1.458501
 H        -0.077776         3.076284        -0.365967
