19
Iteration:  1174
 O         0.097485        -0.069339         0.922812
 C        -0.576193         1.168618         0.803926
 C        -2.142517         1.306347         0.409696
 C        -1.731693         1.755104         1.810782
 C        -1.148954         3.107232         1.496026
 O        -0.610648         3.804735         2.664802
 C         0.851985         3.461292         2.824474
 C         1.305443         2.937661         1.372762
 C         0.043256         2.651083         0.579062
 H        -0.162288        -0.565505         0.056950
 H        -2.665630         1.862700        -0.320561
 H        -2.581725         0.324807         0.245453
 H        -2.137546         1.363321         2.844891
 H        -1.820548         3.819366         1.077967
 H         1.340488         4.377074         3.281726
 H         1.076797         2.825832         3.681944
 H         1.969466         3.732580         0.871112
 H         2.036164         2.176412         1.477008
 H         0.190352         3.127718        -0.368257
