19
Iteration:  4565charge 0 multiplicity 1
 O         0.090455         0.005821         0.821734
 C        -0.572554         1.217259         0.782935
 C        -2.055217         1.197431         0.471670
 C        -1.653681         1.849485         1.662910
 C        -1.119831         3.229561         1.499263
 O        -0.607191         3.762881         2.672639
 C         0.713676         3.215700         2.859043
 C         1.229091         2.992353         1.386482
 C         0.031347         2.666868         0.659464
 H         0.946409        -0.004885         1.365639
 H        -2.568366         1.725318        -0.366331
 H        -2.672817         0.161783         0.519909
 H        -1.984059         1.534795         2.622142
 H        -1.833222         4.010747         1.121231
 H         1.422612         3.971685         3.281068
 H         0.638970         2.327695         3.529786
 H         1.725806         3.891337         0.965283
 H         1.906404         2.216948         1.420865
 H         0.060069         2.902784        -0.429705
