19
Iteration:  2574charge 0 multiplicity 1
 O         0.174274         0.137704         0.991891
 C        -0.643193         1.243990         0.774637
 C        -2.123637         1.193033         0.517342
 C        -1.622771         1.757974         1.779279
 C        -1.191812         3.307336         1.506686
 O        -0.554315         3.817516         2.597265
 C         0.729797         3.200835         2.777896
 C         1.273617         2.821169         1.358089
 C        -0.032913         2.646432         0.572657
 H         0.781116         0.060931         0.213702
 H        -2.657802         1.827362        -0.264140
 H        -2.575915         0.090497         0.524720
 H        -1.880875         1.377838         2.836357
 H        -1.831995         4.077052         1.194875
 H         1.339289         3.994319         3.345475
 H         0.743905         2.268832         3.486086
 H         1.699141         3.657100         0.828060
 H         1.868263         1.891521         1.267663
 H         0.176369         2.890147        -0.488186
