19
Iteration:   864
 O         0.280920         0.212121         0.899795
 C        -0.621399         1.290452         0.921322
 C        -2.120359         1.154545         0.601174
 C        -1.757390         1.881113         1.840173
 C        -1.107486         3.271236         1.381572
 O        -0.542066         3.825671         2.522152
 C         0.678557         3.029894         2.750936
 C         1.355917         2.855984         1.418442
 C        -0.065393         2.617395         0.510814
 H        -0.104629        -0.657587         0.536968
 H        -2.511378         1.777247        -0.222402
 H        -2.613721         0.259745         0.842660
 H        -2.182169         1.827179         2.937350
 H        -1.767891         4.064888         1.142576
 H         1.159962         3.658622         3.529835
 H         0.350409         2.077294         3.064513
 H         1.759028         3.791649         1.184576
 H         1.982408         1.906529         1.543114
 H         0.019669         2.955243        -0.603018
