19
Iteration:  1340
 O         0.217504         0.062513         1.162563
 C        -0.692623         1.217528         0.876887
 C        -2.067386         1.322642         0.324926
 C        -1.764099         1.754630         1.706187
 C        -1.152879         3.163673         1.576014
 O        -0.543846         3.770580         2.713537
 C         0.811198         3.252757         2.687665
 C         1.226527         2.982612         1.276749
 C        -0.032465         2.613249         0.542950
 H         0.470696        -0.270945         0.245830
 H        -2.317651         2.149938        -0.380792
 H        -2.685139         0.447095         0.359024
 H        -2.142428         1.322219         2.565101
 H        -1.878951         3.896225         1.161206
 H         1.512887         3.986699         3.287601
 H         0.785749         2.214689         3.178946
 H         1.900784         3.707473         0.648323
 H         1.889536         2.079918         1.318768
 H        -0.001738         2.916430        -0.476454
