19
Iteration:  1580
 O         0.053260         0.071494         1.094061
 C        -0.614386         1.205998         0.803056
 C        -2.008189         1.216542         0.443700
 C        -1.766457         1.856884         1.769566
 C        -1.206435         3.254409         1.484335
 O        -0.552323         3.692083         2.704145
 C         0.775214         3.190986         2.710901
 C         1.289304         3.032084         1.305465
 C         0.045462         2.588080         0.509317
 H         0.678218        -0.246299         0.359429
 H        -2.342826         1.862240        -0.424128
 H        -2.339276         0.138341         0.355867
 H        -2.084691         1.598195         2.826395
 H        -1.830369         4.089999         1.287175
 H         1.278146         4.079199         3.298501
 H         0.799623         2.190888         3.367185
 H         1.688941         4.007800         0.961630
 H         2.155579         2.478978         1.235755
 H         0.052832         2.902324        -0.540412
