19
Iteration:  1234
 O         0.184405         0.078589         0.998002
 C        -0.645348         1.175401         0.829509
 C        -2.066475         1.228278         0.397174
 C        -1.723765         1.762859         1.777698
 C        -1.214098         3.225698         1.543423
 O        -0.499476         3.896999         2.595751
 C         0.790676         3.210646         2.801493
 C         1.276354         2.906784         1.346964
 C        -0.068601         2.640578         0.647781
 H         0.597508         0.005029         0.078562
 H        -2.295393         1.833395        -0.479800
 H        -2.702284         0.270991         0.633375
 H        -2.159852         1.404400         2.663384
 H        -1.947605         3.944855         1.039568
 H         1.471495         3.862061         3.307336
 H         0.561148         2.158537         3.132161
 H         1.798822         3.681111         0.832668
 H         1.831932         1.918769         1.474929
 H        -0.044790         2.977731        -0.495216
