19
Iteration:  3401
 O         0.090097        -0.074733         0.892178
 C        -0.552892         1.143725         0.829436
 C        -1.993604         1.279644         0.346799
 C        -1.728669         1.775968         1.779773
 C        -1.187813         3.220086         1.502238
 O        -0.488855         3.851323         2.741199
 C         0.762852         3.222312         2.821624
 C         1.213985         3.036461         1.334058
 C        -0.039726         2.673123         0.566768
 H         0.371161        -0.172011         1.822248
 H        -2.261715         2.026268        -0.440685
 H        -2.587628         0.389411         0.084095
 H        -2.282398         1.418769         2.730829
 H        -1.980499         3.737191         1.140307
 H         1.337924         3.879924         3.473683
 H         0.792279         2.157346         3.079247
 H         1.697684         3.964524         0.985195
 H         2.026860         2.266846         1.084786
 H        -0.168469         3.151317        -0.455261
