19
Iteration:  4029
 O         0.140067         0.080453         0.808215
 C        -0.602658         1.266944         0.804430
 C        -2.096555         1.167230         0.422384
 C        -1.699358         1.673216         1.738761
 C        -1.153596         3.203649         1.562905
 O        -0.527861         3.936398         2.651831
 C         0.743211         3.196213         2.834903
 C         1.301226         2.904545         1.383328
 C        -0.045250         2.668826         0.610207
 H         0.576232        -0.009806         1.677160
 H        -2.570623         1.936998        -0.268125
 H        -2.678731         0.174360         0.198551
 H        -1.954101         1.500840         2.693236
 H        -2.025708         3.721409         1.071463
 H         1.413690         3.783496         3.560705
 H         0.459513         2.231190         3.234879
 H         1.707577         3.797823         1.042667
 H         2.052156         2.084731         1.287989
 H         0.114221         3.010454        -0.342580
