19
Iteration:  2189
 O         0.173833         0.214478         1.089473
 C        -0.679038         1.268912         0.799058
 C        -2.085033         1.138271         0.450622
 C        -1.647987         1.827380         1.783171
 C        -1.164707         3.257771         1.478373
 O        -0.545760         3.711870         2.661832
 C         0.715235         3.111265         2.683587
 C         1.241468         2.952954         1.354291
 C         0.011459         2.648915         0.529663
 H         0.268528        -0.295186         0.272695
 H        -2.434404         1.847486        -0.330403
 H        -2.493442         0.121987         0.505760
 H        -1.807210         1.651286         2.820451
 H        -1.768087         4.080550         1.135848
 H         1.233252         3.648172         3.387172
 H         0.633187         2.116041         3.320759
 H         1.782644         3.928102         1.034598
 H         1.931939         2.134792         1.218645
 H         0.158749         2.947191        -0.518365
