19
Iteration:  2267charge 0 multiplicity 1
 O         0.213017         0.087938         0.938464
 C        -0.641870         1.190220         0.832618
 C        -2.068621         1.199144         0.447191
 C        -1.751612         1.810797         1.714440
 C        -1.177359         3.227868         1.458098
 O        -0.551720         3.695931         2.674275
 C         0.811039         3.356884         2.795068
 C         1.280962         2.935767         1.395501
 C        -0.013562         2.604324         0.604669
 H        -0.302766        -0.556780         0.487056
 H        -2.280115         2.004638        -0.368723
 H        -2.778090         0.445004         0.560838
 H        -2.065267         1.484655         2.756415
 H        -1.812668         4.050815         1.084284
 H         1.271169         4.217242         3.094752
 H         0.758301         2.396160         3.432073
 H         1.802392         3.814689         0.819961
 H         1.934301         2.102541         1.572322
 H        -0.116418         3.058655        -0.403988
