19
Iteration:   948charge 0 multiplicity 1
 O         0.058403        -0.031841         0.929025
 C        -0.654056         1.130976         0.903724
 C        -2.084682         1.303755         0.374808
 C        -1.726871         1.758683         1.820135
 C        -1.099768         3.159963         1.487286
 O        -0.564943         3.816219         2.675620
 C         0.829803         3.451725         2.767384
 C         1.280350         2.950985         1.357169
 C         0.023982         2.544024         0.626116
 H         0.486750        -0.029422         0.086007
 H        -2.398313         2.067232        -0.411744
 H        -2.743961         0.343295         0.313154
 H        -2.324286         1.517316         2.670002
 H        -1.917735         3.930081         1.256939
 H         1.311264         4.356389         3.129526
 H         1.141281         2.603924         3.440083
 H         1.819089         3.688611         0.655808
 H         1.976105         2.080099         1.355338
 H         0.178297         2.748669        -0.392618
