19
Iteration:  1896
 O         0.166634         0.127797         1.061069
 C        -0.698922         1.242653         0.797867
 C        -2.109137         1.100973         0.306194
 C        -1.751009         1.819510         1.686468
 C        -1.155301         3.276994         1.580061
 O        -0.546727         3.704938         2.733821
 C         0.825193         3.330288         2.844699
 C         1.350769         2.897119         1.253899
 C        -0.033936         2.649270         0.585965
 H         0.263636        -0.387525         0.281965
 H        -2.594901         1.670596        -0.426356
 H        -2.727865         0.246792         0.530044
 H        -2.345367         1.463431         2.588553
 H        -1.786634         4.087984         1.146641
 H         1.531325         4.219652         3.019399
 H         0.926253         2.397766         3.434692
 H         2.017985         3.724156         0.937881
 H         1.915823         2.066537         1.446774
 H         0.002481         2.850259        -0.522927
