19
Iteration:  4136charge 0 multiplicity 1
 O         0.128453         0.066550         0.858155
 C        -0.605705         1.255648         0.865013
 C        -1.988253         1.241535         0.329045
 C        -1.734793         1.805247         1.772296
 C        -1.238914         3.220871         1.572716
 O        -0.565120         3.754888         2.705945
 C         0.822111         3.203615         2.743075
 C         1.270043         2.936944         1.302743
 C        -0.027282         2.606895         0.679270
 H         0.541556         0.137763         1.745073
 H        -2.302669         1.791365        -0.529605
 H        -2.637560         0.275312         0.408350
 H        -2.229116         1.398369         2.548206
 H        -2.008166         3.877521         0.999619
 H         1.267653         4.056334         3.463915
 H         0.758980         2.253575         3.306437
 H         1.695509         3.906015         0.817155
 H         2.088496         2.182573         1.250940
 H         0.097295         3.188895        -0.400506
