19
Iteration:   187
 O         0.212913         0.062103         1.160576
 C        -0.606783         1.241045         0.891917
 C        -2.087031         1.179714         0.311509
 C        -1.834275         1.831440         1.649474
 C        -1.165828         3.253485         1.557551
 O        -0.515989         3.789614         2.662277
 C         0.801133         3.153185         2.678991
 C         1.319593         3.000889         1.272702
 C        -0.047218         2.696730         0.598613
 H        -0.294999        -0.692636         1.355184
 H        -2.406027         1.593350        -0.623276
 H        -2.664380         0.209348         0.444398
 H        -2.221282         1.324296         2.642784
 H        -1.733661         4.106661         1.166785
 H         1.438301         3.713521         3.421838
 H         0.691166         2.135640         3.157822
 H         1.912331         3.883788         0.890191
 H         2.015088         2.137864         1.094390
 H        -0.183560         3.153665        -0.432472
