19
Iteration:  4590charge 0 multiplicity 1
 O         0.120623         0.091501         0.789593
 C        -0.634955         1.203182         0.867133
 C        -2.039342         1.167827         0.396654
 C        -1.772397         1.826043         1.741842
 C        -1.154429         3.147331         1.509668
 O        -0.487855         3.867685         2.647272
 C         0.686258         3.208630         2.858994
 C         1.269336         2.992137         1.430788
 C        -0.008191         2.615337         0.608960
 H         1.020168         0.220212         1.132408
 H        -2.436128         1.647511        -0.426070
 H        -2.374463         0.131316         0.315433
 H        -2.188944         1.548361         2.782047
 H        -1.820294         3.926465         1.169551
 H         1.337436         3.703583         3.446713
 H         0.511386         2.235542         3.407878
 H         1.718210         3.888117         1.054668
 H         2.099333         2.143942         1.463500
 H         0.101565         2.750103        -0.502905
