19
Iteration:  1504
 O         0.284407         0.085618         0.948765
 C        -0.623282         1.221026         0.813615
 C        -2.082096         1.162649         0.426695
 C        -1.803217         1.903480         1.824577
 C        -1.194907         3.269784         1.504543
 O        -0.564514         3.731794         2.651487
 C         0.817518         3.245056         2.754798
 C         1.296050         2.922139         1.372922
 C        -0.075703         2.640248         0.543883
 H        -0.297882        -0.673944         1.001861
 H        -2.488891         1.763470        -0.428266
 H        -2.538117         0.078688         0.235935
 H        -2.311450         1.632786         2.798134
 H        -1.655679         4.129666         1.050306
 H         1.317767         4.101290         3.378150
 H         0.733619         2.335290         3.405414
 H         1.982043         3.670935         0.947497
 H         1.949319         2.041015         1.407396
 H         0.036563         2.936766        -0.485140
