19
Iteration:   694
 O         0.264988         0.120699         1.038482
 C        -0.684490         1.181337         0.894943
 C        -2.102719         1.212184         0.448941
 C        -1.631694         1.858878         1.811556
 C        -1.198248         3.282331         1.478401
 O        -0.503912         3.918972         2.583020
 C         0.696002         3.067573         2.729969
 C         1.291670         2.859673         1.349457
 C        -0.072441         2.612348         0.573591
 H         0.288308        -0.220152         0.077517
 H        -2.456053         1.825053        -0.493501
 H        -2.775237         0.441227         0.647828
 H        -2.255990         1.574168         2.765063
 H        -1.962424         3.990884         1.033449
 H         1.261954         3.545767         3.480506
 H         0.573231         2.088303         3.232885
 H         1.778911         3.674454         0.699964
 H         1.990506         2.048068         1.453913
 H         0.062749         2.976544        -0.469726
