19
Iteration:  2816charge 0 multiplicity 1
 O         0.192583         0.080048         0.911707
 C        -0.670443         1.251584         0.896020
 C        -2.087679         1.256042         0.377136
 C        -1.713828         1.789250         1.735703
 C        -1.183570         3.247870         1.531484
 O        -0.568079         3.710707         2.599051
 C         0.786058         3.232556         2.815238
 C         1.314682         2.879408         1.346878
 C        -0.045437         2.657695         0.591323
 H         0.682915         0.168730         1.710948
 H        -2.479745         1.993616        -0.220650
 H        -2.525829         0.269910         0.326735
 H        -2.173841         1.302793         2.601833
 H        -1.915867         4.027770         1.182801
 H         1.348152         4.039806         3.188229
 H         0.767268         2.557354         3.689385
 H         1.819956         3.704464         0.981478
 H         2.026530         2.099812         1.107208
 H        -0.087628         2.870362        -0.464671
