19
Iteration:  3474
 O         0.112317         0.067213         0.802949
 C        -0.596244         1.209114         0.770717
 C        -2.065050         1.116957         0.467552
 C        -1.669761         1.908331         1.783005
 C        -1.167345         3.296081         1.504506
 O        -0.567831         3.760506         2.707038
 C         0.761386         3.256384         2.880158
 C         1.220499         2.856060         1.428363
 C        -0.032922         2.646470         0.521934
 H         0.878092         0.461832         1.179062
 H        -2.341863         1.674206        -0.462128
 H        -2.521562         0.132746         0.443792
 H        -2.163439         1.589117         2.703481
 H        -1.957302         4.057228         1.033555
 H         1.515224         4.064839         3.172613
 H         0.730751         2.332847         3.450518
 H         1.827658         3.699698         0.951177
 H         1.893997         2.026811         1.408366
 H         0.265380         2.706551        -0.509117
