19
Iteration:  3347
 O         0.201725         0.110157         0.936624
 C        -0.663674         1.206155         0.812960
 C        -2.099236         1.101369         0.406153
 C        -1.741424         1.905494         1.667006
 C        -1.165068         3.385336         1.527442
 O        -0.530579         3.738026         2.691866
 C         0.771890         3.126242         2.801602
 C         1.237866         2.921531         1.394733
 C        -0.039183         2.655320         0.547617
 H         1.067957         0.492589         1.238526
 H        -2.492204         1.448652        -0.586719
 H        -2.634948         0.215078         0.649082
 H        -2.141872         1.486019         2.620874
 H        -1.965893         4.068737         1.300716
 H         1.345226         3.703968         3.480653
 H         0.843552         2.140513         3.426554
 H         1.791891         3.802839         1.052175
 H         1.919490         2.027099         1.220784
 H         0.163399         2.891970        -0.544370
