19
Iteration:  2713charge 0 multiplicity 1
 O         0.156008        -0.002334         0.989325
 C        -0.633314         1.256770         0.816000
 C        -2.025376         1.230364         0.356290
 C        -1.875634         1.814944         1.702739
 C        -1.125705         3.253197         1.544020
 O        -0.485267         3.733471         2.708782
 C         0.812361         3.212384         2.831315
 C         1.239830         2.967009         1.313120
 C        -0.067123         2.606501         0.570426
 H         1.083523         0.390949         0.984478
 H        -2.541886         1.741577        -0.430616
 H        -2.432775         0.166655         0.602311
 H        -2.539814         1.497524         2.551322
 H        -1.610253         4.207398         1.019707
 H         1.310998         4.213933         3.222578
 H         0.833957         2.400243         3.494914
 H         1.685367         3.909879         0.819416
 H         1.948871         2.114557         1.233511
 H        -0.119369         3.019327        -0.463139
