19
Iteration:   508charge 0 multiplicity 1
 O         0.161636         0.076200         1.085557
 C        -0.676666         1.183089         0.869615
 C        -2.010778         1.156007         0.339413
 C        -1.750108         1.833515         1.727891
 C        -1.180559         3.212413         1.565811
 O        -0.410050         3.987506         2.582557
 C         0.787298         3.139764         2.785259
 C         1.193109         2.874864         1.341063
 C        -0.113778         2.607063         0.600479
 H         0.872123         0.075003         0.364108
 H        -2.299491         1.880700        -0.419293
 H        -2.613724         0.126855         0.378005
 H        -2.205978         1.418755         2.593472
 H        -1.951772         3.919046         1.243123
 H         1.555273         3.474700         3.410500
 H         0.420154         2.233259         3.308936
 H         1.496326         3.916046         0.970575
 H         1.973781         2.174929         0.978992
 H         0.000464         3.149159        -0.457270
