19
Iteration:  2332
 O         0.170580         0.058328         0.874661
 C        -0.617886         1.194034         0.819096
 C        -2.106097         1.220679         0.385614
 C        -1.699994         1.716188         1.785808
 C        -1.183657         3.152207         1.575678
 O        -0.523537         3.933269         2.669348
 C         0.753356         3.423558         2.741481
 C         1.255619         2.808620         1.436445
 C        -0.039837         2.520025         0.633254
 H         0.779073        -0.006670         0.069621
 H        -2.453857         2.169235        -0.285955
 H        -2.707666         0.320083         0.330484
 H        -2.269717         1.336274         2.672239
 H        -1.782437         3.912156         1.061112
 H         1.509045         4.248350         3.021190
 H         0.752994         2.540450         3.504336
 H         1.785718         3.736716         0.980202
 H         1.826072         1.915168         1.605528
 H         0.121045         3.000516        -0.379382
