19
Iteration:  2116
 O         0.122220         0.015461         1.066625
 C        -0.637424         1.218659         0.813333
 C        -2.094933         1.263638         0.383376
 C        -1.712002         1.770797         1.803648
 C        -1.227050         3.180694         1.596763
 O        -0.499394         3.771088         2.612852
 C         0.784325         3.203047         2.711115
 C         1.294928         3.028721         1.351037
 C        -0.028918         2.649170         0.544235
 H         0.683083        -0.231734         0.361891
 H        -2.326006         2.067464        -0.386475
 H        -2.559337         0.372658         0.135045
 H        -2.113313         1.272243         2.734348
 H        -2.036435         3.823806         1.097366
 H         1.371270         4.017906         3.354767
 H         0.793978         2.465337         3.348765
 H         1.715109         3.910715         0.836793
 H         2.129955         2.347730         1.520652
 H         0.078772         3.051411        -0.502274
