19
Iteration:  3983
 O         0.118901        -0.041463         0.791778
 C        -0.598646         1.232640         0.838717
 C        -2.045243         1.196355         0.380321
 C        -1.739185         1.815713         1.769508
 C        -1.146911         3.287726         1.492429
 O        -0.609967         3.783019         2.804915
 C         0.799333         3.292519         2.796899
 C         1.259926         2.942751         1.331809
 C        -0.029752         2.602505         0.634549
 H         0.819550         0.129826         1.384927
 H        -2.413112         1.760279        -0.543205
 H        -2.527794         0.274529         0.288970
 H        -2.132881         1.298752         2.631408
 H        -1.772763         4.143282         1.049655
 H         1.536148         4.184806         3.004570
 H         0.902036         2.496645         3.542183
 H         1.830634         3.792708         0.970788
 H         1.928599         2.101466         1.386311
 H        -0.062540         2.968319        -0.385961
