19
Iteration:  2756charge 0 multiplicity 1
 O         0.111527         0.105793         1.035436
 C        -0.609746         1.254948         0.845326
 C        -1.977739         1.193837         0.419080
 C        -1.723475         1.869421         1.719434
 C        -1.152113         3.211598         1.504166
 O        -0.507716         3.754002         2.632548
 C         0.772132         3.035190         2.741523
 C         1.246049         3.029846         1.339095
 C        -0.113896         2.716189         0.515156
 H         0.521459         0.037501         1.917176
 H        -2.392809         1.796616        -0.437728
 H        -2.364954         0.048131         0.469979
 H        -2.171569         1.299782         2.562537
 H        -1.833719         4.089707         1.158044
 H         1.587803         3.428133         3.506704
 H         0.575503         1.986164         3.038613
 H         1.691615         4.125171         1.173565
 H         1.991578         2.186731         1.280974
 H        -0.308216         2.981029        -0.559883
