19
Iteration:  4019charge 0 multiplicity 1
 O         0.132782         0.081433         0.831637
 C        -0.660036         1.217657         0.748131
 C        -2.098007         1.217264         0.395731
 C        -1.692357         1.702046         1.782295
 C        -1.208314         3.197509         1.579985
 O        -0.511689         3.903308         2.614739
 C         0.731125         3.167283         2.785166
 C         1.320799         2.960216         1.419120
 C        -0.017267         2.654982         0.673018
 H         0.632510         0.066460         1.627664
 H        -2.487744         2.012114        -0.324648
 H        -2.362995         0.034558         0.323509
 H        -1.933966         1.057690         2.585272
 H        -1.787019         3.970464         1.006456
 H         1.311439         3.965917         3.293959
 H         0.724465         2.328176         3.455820
 H         1.858827         3.779352         1.027979
 H         1.951189         2.026429         1.316556
 H        -0.106594         3.067063        -0.255759
