19
Iteration:  4896charge 0 multiplicity 1
 O         0.094527        -0.007441         0.863772
 C        -0.642832         1.267749         0.834901
 C        -2.087228         1.232199         0.242881
 C        -1.695066         1.763462         1.711295
 C        -1.122715         3.140508         1.553040
 O        -0.543149         3.819867         2.724508
 C         0.809541         3.289343         2.864966
 C         1.231508         2.989632         1.375832
 C         0.031471         2.632974         0.614721
 H         0.642193        -0.043234         1.713932
 H        -2.313029         1.962740        -0.554670
 H        -2.602663         0.132065         0.287746
 H        -2.255935         1.352797         2.667550
 H        -1.916157         3.821768         1.136969
 H         1.402000         4.042715         3.438451
 H         0.733972         2.367597         3.526934
 H         1.542957         3.829692         0.780014
 H         1.952473         2.172486         1.360378
 H        -0.051430         3.034585        -0.338855
