19
Iteration:  1444
 O         0.225087         0.100078         0.879707
 C        -0.633744         1.239839         0.803417
 C        -2.074970         1.129232         0.449791
 C        -1.638533         1.767462         1.771569
 C        -1.200669         3.202699         1.628763
 O        -0.478335         4.017591         2.541395
 C         0.674706         3.169301         2.735664
 C         1.284883         2.860904         1.416718
 C        -0.054073         2.652352         0.632539
 H        -0.364528        -0.602719         0.833573
 H        -2.315701         1.661245        -0.498247
 H        -2.567324         0.333104         0.826907
 H        -2.050305         1.371319         2.737173
 H        -1.810685         3.933620         1.051120
 H         1.305188         3.719032         3.365896
 H         0.323150         2.189142         3.437134
 H         1.832684         3.761254         1.160097
 H         1.914252         1.912571         1.317019
 H        -0.242679         3.053694        -0.428246
