19
Iteration:   842
 O         0.235786         0.159846         0.990734
 C        -0.607977         1.224014         0.822747
 C        -2.120238         1.162428         0.449558
 C        -1.731160         1.875258         1.761753
 C        -1.187982         3.273575         1.485694
 O        -0.486749         3.911209         2.629699
 C         0.755885         3.074812         2.785586
 C         1.218492         2.889574         1.316043
 C        -0.000193         2.591911         0.593191
 H        -0.163861        -0.672043         0.829210
 H        -2.544285         1.557581        -0.479523
 H        -2.483347         0.187222         0.704297
 H        -2.147511         1.689346         2.816886
 H        -1.799563         4.092088         1.157297
 H         1.458294         3.661627         3.404045
 H         0.492789         2.122859         3.148723
 H         1.636920         3.804909         0.999172
 H         1.839403         1.940230         1.254908
 H         0.065643         2.856776        -0.528759
