19
Iteration:  4848
 O         0.017708         0.018157         0.811895
 C        -0.597541         1.286244         0.870573
 C        -1.999614         1.169768         0.368070
 C        -1.718239         1.815730         1.721991
 C        -1.117217         3.234391         1.509026
 O        -0.567463         3.750207         2.681833
 C         0.709217         3.219362         2.808578
 C         1.312944         3.014565         1.406249
 C         0.017274         2.622269         0.656683
 H         0.791732         0.151547         1.407463
 H        -2.187258         1.764147        -0.546857
 H        -2.456182         0.270555         0.536814
 H        -2.162130         1.262573         2.603917
 H        -1.699492         3.982884         1.018413
 H         1.327466         3.934036         3.279917
 H         0.752441         2.322366         3.468165
 H         1.602754         4.026553         1.055305
 H         2.024643         2.223647         1.333815
 H        -0.233100         2.880662        -0.348021
