19
Iteration:   651charge 0 multiplicity 1
 O         0.143879         0.143322         0.945127
 C        -0.652948         1.225538         0.781342
 C        -2.102175         1.038657         0.545028
 C        -1.578032         1.888597         1.705413
 C        -1.149687         3.344286         1.435111
 O        -0.515697         3.846280         2.607182
 C         0.747021         3.175745         2.809660
 C         1.235291         2.874969         1.444139
 C        -0.005117         2.643425         0.563242
 H        -0.318914        -0.700992         0.616668
 H        -2.600561         1.507727        -0.422963
 H        -2.601285         0.173322         0.913162
 H        -2.037861         1.560794         2.727855
 H        -1.911155         4.044593         1.012312
 H         1.408073         3.746343         3.425419
 H         0.518068         2.289201         3.457730
 H         1.845557         3.832665         1.173450
 H         1.821069         1.996996         1.237708
 H         0.153639         2.895516        -0.580270
