19
Iteration:  3683
 O         0.145434         0.073631         0.871408
 C        -0.624421         1.279709         0.849004
 C        -2.037439         1.206176         0.436122
 C        -1.687175         1.832568         1.795716
 C        -1.181892         3.265539         1.506510
 O        -0.517492         3.798517         2.679050
 C         0.692701         3.084627         2.786384
 C         1.243844         2.953635         1.420574
 C        -0.016593         2.624872         0.455953
 H         0.911123         0.090281         1.565146
 H        -2.526931         1.815237        -0.311252
 H        -2.387467         0.245840         0.593106
 H        -2.178884         1.488195         2.647778
 H        -1.855640         3.991936         1.037681
 H         1.288088         3.715381         3.441763
 H         0.471042         2.116604         3.197951
 H         1.610505         3.950925         1.089445
 H         2.128129         2.320122         1.284716
 H         0.075571         2.809827        -0.554636
