19
Iteration:  3496
 O         0.145047         0.090303         0.809291
 C        -0.582528         1.243292         0.833002
 C        -2.080263         1.203294         0.432452
 C        -1.731392         1.771449         1.738115
 C        -1.137615         3.185354         1.535399
 O        -0.517309         3.883546         2.619397
 C         0.684561         3.198129         2.812266
 C         1.274184         2.845343         1.411093
 C        -0.048219         2.674082         0.655349
 H         0.974689         0.365802         1.321056
 H        -2.617180         1.637754        -0.417680
 H        -2.538285         0.227626         0.615959
 H        -2.024990         1.365441         2.731612
 H        -1.921543         3.974347         1.199322
 H         1.489998         3.806977         3.310505
 H         0.438561         2.247738         3.308567
 H         1.812625         3.674642         0.852384
 H         1.967568         2.070424         1.334069
 H         0.080019         3.062865        -0.326116
