19
Iteration:  1462
 O         0.270074         0.169701         0.893986
 C        -0.654638         1.235592         0.761145
 C        -2.113480         1.103653         0.443837
 C        -1.731497         1.764428         1.797111
 C        -1.156999         3.291213         1.483003
 O        -0.436511         3.944353         2.562385
 C         0.742210         3.196135         2.883015
 C         1.171674         2.825183         1.442544
 C        -0.060907         2.639593         0.565214
 H        -0.127169        -0.647852         1.082131
 H        -2.694920         1.720071        -0.221277
 H        -2.355232        -0.013517         0.554133
 H        -2.069259         1.406369         2.844495
 H        -2.062062         3.920169         1.181048
 H         1.484479         3.795921         3.424408
 H         0.558167         2.268071         3.307963
 H         1.802468         3.568177         0.939672
 H         1.969990         1.977326         1.333492
 H         0.060949         2.989651        -0.457606
