19
Iteration:  4661charge 0 multiplicity 1
 O         0.137578         0.063767         0.848047
 C        -0.587270         1.271528         0.788902
 C        -2.125804         1.155691         0.392689
 C        -1.744852         1.787887         1.697875
 C        -1.196329         3.200012         1.534436
 O        -0.555032         3.788528         2.677592
 C         0.735938         3.204014         2.826419
 C         1.331876         2.971975         1.405268
 C         0.042820         2.641055         0.584283
 H         0.352633        -0.034376         1.795497
 H        -2.562685         1.746912        -0.447270
 H        -2.611365         0.040818         0.301003
 H        -2.011757         1.757887         2.710607
 H        -1.961847         3.951320         1.163276
 H         1.300983         4.018403         3.559202
 H         0.946998         2.349314         3.480259
 H         1.915704         3.938685         1.056862
 H         2.073277         2.075043         1.334641
 H         0.011580         3.193789        -0.325448
