19
Iteration:  3187charge 0 multiplicity 1
 O         0.059369         0.088926         0.814650
 C        -0.631067         1.263592         0.866374
 C        -2.070905         1.171703         0.425309
 C        -1.711684         1.695927         1.720372
 C        -1.216756         3.245205         1.496932
 O        -0.554699         3.826215         2.654159
 C         0.779480         3.272457         2.826129
 C         1.324946         2.875932         1.425368
 C         0.011669         2.658297         0.592882
 H         0.886653         0.143165         1.358639
 H        -2.343724         1.719482        -0.495261
 H        -2.502392         0.256340         0.485145
 H        -1.970798         1.209185         2.663065
 H        -1.873743         3.930908         1.103238
 H         1.357331         4.179658         3.176161
 H         0.759063         2.577446         3.733500
 H         1.983341         3.626027         0.982913
 H         2.015335         2.021322         1.479855
 H         0.029425         2.961165        -0.428091
