19
Iteration:  3231charge 0 multiplicity 1
 O         0.120496        -0.032811         0.872464
 C        -0.669622         1.200258         0.902546
 C        -2.064945         1.249357         0.264517
 C        -1.770933         1.801013         1.672206
 C        -1.201022         3.225400         1.587458
 O        -0.517247         3.749466         2.721366
 C         0.825594         3.430768         2.787900
 C         1.273532         2.948820         1.391221
 C        -0.049503         2.552813         0.632707
 H         1.037331         0.249704         1.180279
 H        -2.448920         2.012065        -0.430812
 H        -2.412442         0.277543         0.099559
 H        -2.171865         1.320973         2.624949
 H        -1.954047         3.942891         1.368124
 H         1.426566         4.248804         3.235306
 H         1.064584         2.580834         3.476102
 H         1.888897         3.643127         0.798261
 H         1.965873         2.104623         1.508342
 H         0.078759         2.709879        -0.417369
