19
Iteration:  4671charge 0 multiplicity 1
 O         0.134823         0.052304         0.853475
 C        -0.615563         1.214200         0.821357
 C        -2.115630         1.172353         0.368284
 C        -1.788231         1.797128         1.703413
 C        -1.151575         3.210820         1.541533
 O        -0.522849         3.743983         2.652406
 C         0.796543         3.241858         2.866892
 C         1.244722         3.018140         1.423879
 C         0.043440         2.695929         0.567781
 H         0.581856        -0.207112         1.705971
 H        -2.532882         1.812649        -0.417600
 H        -2.490106         0.110386         0.551215
 H        -2.277545         1.319659         2.500829
 H        -1.717579         4.067104         1.111674
 H         1.335046         4.091161         3.497691
 H         0.691448         2.251808         3.360622
 H         1.771136         3.913873         0.886247
 H         2.030197         2.131677         1.469076
 H         0.103348         3.026345        -0.477349
