19
Iteration:  4099
 O         0.116080         0.082301         0.894699
 C        -0.659165         1.267527         0.761065
 C        -2.060457         1.151965         0.370185
 C        -1.697096         1.800466         1.719230
 C        -1.218181         3.200797         1.532052
 O        -0.514528         3.818999         2.660059
 C         0.798312         3.194421         2.856714
 C         1.261304         2.912179         1.408678
 C        -0.018348         2.659185         0.630058
 H         0.983206         0.130501         1.253880
 H        -2.491929         1.780766        -0.421079
 H        -2.515044         0.233314         0.406951
 H        -2.072666         1.302835         2.740162
 H        -1.870261         3.957146         1.111257
 H         1.450739         3.806608         3.341035
 H         0.699694         2.255459         3.381175
 H         1.467892         3.937371         0.946756
 H         2.095013         2.237278         1.164865
 H         0.001099         3.162294        -0.331879
