19
Iteration:  4481
 O         0.130464         0.065216         0.908639
 C        -0.601254         1.275999         0.848418
 C        -2.036546         1.211409         0.347574
 C        -1.758711         1.840397         1.749656
 C        -1.145814         3.230640         1.496842
 O        -0.565129         3.701951         2.675122
 C         0.777573         3.189444         2.806580
 C         1.228350         2.970674         1.361067
 C        -0.057108         2.680214         0.583290
 H         0.817628         0.216682         1.532449
 H        -2.410123         1.687926        -0.457153
 H        -2.288329         0.103978         0.499781
 H        -2.206192         1.374358         2.655300
 H        -1.831847         3.981845         1.167784
 H         1.481913         3.777182         3.339740
 H         0.808928         2.157828         3.368498
 H         1.762606         3.851630         1.036781
 H         2.168391         2.223795         1.451471
 H         0.018214         3.028433        -0.454317
