19
Iteration:  2178charge 0 multiplicity 1
 O         0.202463         0.188468         1.074590
 C        -0.649770         1.309211         0.797359
 C        -2.170428         1.151279         0.430656
 C        -1.701749         1.840983         1.783859
 C        -1.144650         3.256877         1.436967
 O        -0.545162         3.730823         2.615296
 C         0.794355         3.106689         2.839952
 C         1.261667         2.942200         1.325434
 C        -0.031854         2.640594         0.583861
 H         0.662984        -0.086755         0.309595
 H        -2.676115         1.529837        -0.484917
 H        -2.438263         0.064788         0.568688
 H        -2.116650         1.495600         2.699254
 H        -1.863003         3.969768         1.059042
 H         1.469718         3.744652         3.259585
 H         0.765804         1.944681         3.169103
 H         1.713986         3.894750         0.814572
 H         2.022476         2.188453         1.434724
 H        -0.096629         3.041831        -0.429403
