19
Iteration:  2359charge 0 multiplicity 1
 O         0.100326        -0.030897         0.818913
 C        -0.622621         1.212388         0.873358
 C        -2.075278         1.214547         0.448733
 C        -1.615522         1.781496         1.843509
 C        -1.210686         3.149381         1.492971
 O        -0.518236         3.901713         2.588415
 C         0.722289         3.312910         2.849944
 C         1.278246         2.935131         1.429003
 C        -0.033207         2.607501         0.544846
 H         1.004567         0.119233         0.383774
 H        -2.446149         1.911140        -0.176903
 H        -2.504165         0.218031         0.481655
 H        -2.179965         1.597672         2.759791
 H        -1.908185         3.952623         1.148760
 H         1.323619         4.044931         3.349897
 H         0.575653         2.358716         3.391746
 H         1.814692         3.772225         1.128306
 H         1.864381         1.985531         1.483593
 H         0.073106         3.007814        -0.452696
