19
Iteration:  4282charge 0 multiplicity 1
 O         0.078713         0.069673         0.814349
 C        -0.607776         1.288971         0.796829
 C        -2.009430         1.180232         0.458199
 C        -1.676641         1.768096         1.749316
 C        -1.218843         3.232092         1.547909
 O        -0.568738         3.808060         2.623942
 C         0.745339         3.179356         2.839688
 C         1.276181         2.967518         1.439567
 C        -0.005999         2.645613         0.547479
 H         0.686201         0.144189         1.615643
 H        -2.556157         1.769315        -0.318497
 H        -2.311265         0.198874         0.337952
 H        -1.745321         1.361045         2.852854
 H        -1.876894         3.939076         1.009445
 H         1.355928         3.810585         3.393250
 H         0.772415         2.202296         3.202770
 H         1.835863         3.721182         1.000866
 H         1.940673         2.055637         1.660476
 H        -0.049522         3.077713        -0.516487
