19
Iteration:  1572
 O         0.070798         0.000059         1.112072
 C        -0.616857         1.300264         0.879407
 C        -2.010377         1.260039         0.399929
 C        -1.671898         1.850343         1.761273
 C        -1.173515         3.230457         1.476049
 O        -0.582852         3.680051         2.678457
 C         0.789468         3.174407         2.740128
 C         1.238405         3.068282         1.270364
 C         0.033865         2.611202         0.554635
 H         0.560003        -0.361470         0.281218
 H        -2.484795         1.924831        -0.385048
 H        -2.369941         0.282804         0.382206
 H        -2.280513         1.555512         2.619103
 H        -1.981369         3.950886         1.164171
 H         1.399640         3.963782         3.204911
 H         0.884176         2.196519         3.327728
 H         1.519753         3.992405         0.827894
 H         2.152796         2.319262         1.263959
 H        -0.026020         2.814472        -0.497583
