19
Iteration:  4306charge 0 multiplicity 1
 O         0.152442        -0.027423         0.792011
 C        -0.658070         1.152397         0.798988
 C        -2.035598         1.253997         0.387386
 C        -1.667974         1.755362         1.750806
 C        -1.127632         3.179457         1.596058
 O        -0.548787         3.922435         2.653023
 C         0.717458         3.196537         2.893954
 C         1.203668         2.993325         1.388144
 C         0.014741         2.652066         0.596649
 H         0.804801         0.250125         1.507362
 H        -2.413148         1.834188        -0.480911
 H        -2.696961         0.284455         0.507020
 H        -2.283726         1.370987         2.580633
 H        -1.745025         3.854617         1.030776
 H         1.432109         3.868934         3.292927
 H         0.704146         2.303461         3.433271
 H         1.576793         3.863679         1.095044
 H         1.916986         2.222796         1.160112
 H        -0.060932         3.090617        -0.388213
