19
Iteration:   272charge 0 multiplicity 1
 O         0.020239         0.066500         1.058834
 C        -0.589099         1.203211         0.810491
 C        -2.109767         1.134058         0.393342
 C        -1.631047         1.766375         1.713063
 C        -1.132112         3.240685         1.464021
 O        -0.525839         3.875925         2.634491
 C         0.786597         3.271410         2.834880
 C         1.262626         2.877933         1.376079
 C        -0.012877         2.655274         0.574083
 H         0.578238        -0.343854         0.332488
 H        -2.538253         1.782754        -0.282792
 H        -2.478621         0.068470         0.520410
 H        -2.003331         1.572023         2.819673
 H        -1.743683         4.032663         0.984093
 H         1.558732         4.086672         3.158568
 H         0.779645         2.570366         3.627395
 H         1.456291         3.803881         0.975492
 H         1.885198         2.097926         1.109855
 H        -0.046926         2.927833        -0.516702
