19
Iteration:   372charge 0 multiplicity 1
 O         0.136150         0.127488         0.969229
 C        -0.647217         1.273548         0.817306
 C        -2.097532         1.123906         0.440351
 C        -1.668544         1.839747         1.775445
 C        -1.157804         3.200376         1.454786
 O        -0.481773         3.834164         2.575714
 C         0.721658         3.243167         2.818742
 C         1.280231         2.912225         1.404866
 C         0.016376         2.582390         0.572858
 H        -0.514090        -0.522966         0.810528
 H        -2.579731         1.748294        -0.332920
 H        -2.563111         0.167518         0.526463
 H        -1.998775         1.354649         2.802989
 H        -1.870726         3.972061         1.104008
 H         1.310632         4.036090         3.424557
 H         0.726645         2.340227         3.437736
 H         1.723140         3.765213         0.929727
 H         2.055369         2.135715         1.443297
 H         0.133717         2.982007        -0.473370
