19
Iteration:   248charge 0 multiplicity 1
 O         0.046192         0.022478         1.090446
 C        -0.639869         1.196100         0.852609
 C        -2.079792         1.174045         0.387266
 C        -1.782192         1.848924         1.763635
 C        -1.189927         3.237589         1.489790
 O        -0.570997         3.690876         2.659769
 C         0.866206         3.358839         2.747199
 C         1.353591         3.030605         1.362769
 C         0.077020         2.623257         0.518108
 H         0.265376        -0.424523         0.303167
 H        -2.449135         1.743800        -0.504794
 H        -2.456919         0.235725         0.640140
 H        -2.258809         1.620059         2.630225
 H        -1.752479         4.085011         0.997083
 H         1.433638         4.050306         3.369218
 H         0.822691         2.376929         3.209630
 H         1.803397         3.812318         0.742627
 H         1.885878         2.102271         1.499157
 H         0.092488         2.814898        -0.529731
