19
Iteration:  1649charge 0 multiplicity 1
 O         0.234891         0.119412         1.010050
 C        -0.607204         1.298495         0.842491
 C        -2.064668         1.224660         0.454403
 C        -1.641644         1.807892         1.834797
 C        -1.213317         3.207343         1.508877
 O        -0.537863         3.843149         2.602124
 C         0.670830         3.145849         2.727020
 C         1.275126         2.852505         1.348955
 C        -0.045757         2.674426         0.569962
 H         0.029416        -0.602480         0.431191
 H        -2.301712         1.991458        -0.327724
 H        -2.517153         0.229887         0.356282
 H        -2.236613         1.584489         2.700832
 H        -1.901513         3.917138         1.014439
 H         1.337195         3.774776         3.288856
 H         0.393534         2.165570         3.360252
 H         1.812891         3.678452         0.983693
 H         1.994288         1.996023         1.276925
 H         0.015165         2.802316        -0.504556
