19
Iteration:  4951charge 0 multiplicity 1
 O         0.211022         0.122158         0.846176
 C        -0.636227         1.262889         0.800384
 C        -2.085195         1.147912         0.408710
 C        -1.731990         1.884290         1.703317
 C        -1.137236         3.280809         1.490007
 O        -0.544502         3.799111         2.707092
 C         0.706025         3.108469         2.822768
 C         1.273695         2.925751         1.466257
 C        -0.050865         2.559544         0.522008
 H         0.720806         0.266263         1.643142
 H        -2.303374         1.947990        -0.416033
 H        -2.572148         0.163089         0.505731
 H        -2.051067         1.437882         2.686480
 H        -1.929941         4.027186         1.164322
 H         1.397271         3.808447         3.400825
 H         0.564060         2.142204         3.381621
 H         1.699117         3.784451         0.962473
 H         2.133926         2.247632         1.529593
 H        -0.129946         2.862530        -0.472411
