19
Iteration:   450charge 0 multiplicity 1
 O         0.131640         0.116190         1.134048
 C        -0.640409         1.227044         0.811853
 C        -2.074504         1.129368         0.453581
 C        -1.665048         1.889529         1.690805
 C        -1.132652         3.314922         1.457204
 O        -0.547175         3.687141         2.654686
 C         0.783455         3.204805         2.783506
 C         1.245958         2.955164         1.327973
 C        -0.033568         2.649666         0.491619
 H        -0.152378        -0.526437         0.495010
 H        -2.615086         1.662506        -0.361247
 H        -2.422309         0.153914         0.544135
 H        -2.027275         1.439397         2.651668
 H        -1.754946         4.199174         1.237374
 H         1.384561         4.001595         3.327933
 H         0.724615         2.281711         3.327876
 H         1.794184         3.784370         1.060872
 H         2.002192         2.132412         1.272961
 H         0.169518         3.037956        -0.562084
