19
Iteration:  1283charge 0 multiplicity 1
 O         0.213839         0.140933         1.088701
 C        -0.655886         1.209068         0.776155
 C        -2.049076         1.080287         0.495026
 C        -1.705266         1.909324         1.673448
 C        -1.186901         3.352153         1.509488
 O        -0.545542         3.812881         2.668761
 C         0.714772         2.999777         2.769621
 C         1.326170         2.952810         1.304603
 C        -0.027446         2.723674         0.519606
 H        -0.194809        -0.544044         0.576329
 H        -2.677431         1.534519        -0.380468
 H        -2.353373         0.061554         0.714541
 H        -2.066576         1.607449         2.772687
 H        -1.927074         4.007579         1.141344
 H         1.484252         3.597341         3.508656
 H         0.608406         1.954091         3.105320
 H         1.655374         4.025998         0.981536
 H         2.000579         2.154574         1.139795
 H         0.039789         3.087691        -0.443080
