19
Iteration:  1055charge 0 multiplicity 1
 O         0.243985         0.222515         1.040537
 C        -0.645329         1.268966         0.850126
 C        -2.025636         1.079056         0.447190
 C        -1.818437         1.861216         1.750077
 C        -1.166074         3.282878         1.494583
 O        -0.454625         3.847806         2.604522
 C         0.755028         2.989393         2.795920
 C         1.279042         2.937737         1.323851
 C        -0.055842         2.660123         0.554964
 H        -0.306383        -0.546584         0.915488
 H        -2.532017         1.615245        -0.351371
 H        -2.588101         0.148441         0.660726
 H        -2.545505         1.535485         2.515634
 H        -1.804723         4.031229         0.978644
 H         1.387652         3.485262         3.570965
 H         0.653464         1.921148         3.110251
 H         1.673670         3.924113         0.895402
 H         2.002932         2.194831         1.122365
 H        -0.178008         3.088504        -0.528259
