19
Iteration:  2065charge 0 multiplicity 1
 O         0.131334         0.033058         0.889058
 C        -0.582253         1.226091         0.916828
 C        -2.016328         1.126130         0.435955
 C        -1.720202         1.848460         1.730782
 C        -1.211829         3.289834         1.453259
 O        -0.511097         3.802476         2.639672
 C         0.808025         3.249304         2.849505
 C         1.291392         3.017539         1.331345
 C        -0.045484         2.649556         0.630350
 H        -0.294102        -0.663388         0.378317
 H        -2.540733         1.562605        -0.470324
 H        -2.584404         0.306250         0.729987
 H        -2.154351         1.431182         2.720608
 H        -2.041091         3.900918         1.204719
 H         1.344725         3.892547         3.539897
 H         0.554622         2.218211         3.471711
 H         1.831802         3.743872         0.790154
 H         1.898520         2.051242         1.245577
 H         0.042564         2.778039        -0.438976
