19
Iteration:  3891charge 0 multiplicity 1
 O         0.120753         0.101302         0.906105
 C        -0.586327         1.285418         0.817568
 C        -2.010960         1.218947         0.411257
 C        -1.700224         1.797865         1.735127
 C        -1.223122         3.259458         1.526372
 O        -0.488354         3.778861         2.683526
 C         0.723963         3.061179         2.769199
 C         1.229425         2.995200         1.332706
 C        -0.046259         2.638586         0.604639
 H         0.637571         0.170932         1.745247
 H        -2.389563         1.691816        -0.399826
 H        -2.458435         0.154431         0.441778
 H        -1.889534         1.568883         2.832452
 H        -1.862953         4.068546         1.207563
 H         1.357127         3.639037         3.363882
 H         0.492554         2.049484         3.246572
 H         1.690897         3.899213         0.882781
 H         2.015793         2.205196         1.263252
 H        -0.098525         2.856057        -0.577562
