19
Iteration:  4598
 O         0.136108         0.096806         0.791568
 C        -0.615846         1.249691         0.863152
 C        -2.058078         1.160165         0.381750
 C        -1.771519         1.766407         1.717987
 C        -1.120923         3.208736         1.547863
 O        -0.504946         3.896333         2.627038
 C         0.694816         3.164410         2.834509
 C         1.238614         2.979254         1.406336
 C         0.022191         2.576942         0.674111
 H         0.980156         0.264012         1.199954
 H        -2.351608         1.838155        -0.420457
 H        -2.470635         0.031731         0.558630
 H        -2.232894         1.457924         2.677909
 H        -1.890209         3.900511         1.128995
 H         1.403109         3.718441         3.515862
 H         0.422256         2.225175         3.359355
 H         1.747538         3.802350         0.919530
 H         1.919370         2.218715         1.466194
 H        -0.045407         2.853170        -0.411966
