19
Iteration:  3987charge 0 multiplicity 1
 O         0.104252        -0.007608         0.795644
 C        -0.587888         1.200022         0.843041
 C        -2.051229         1.199770         0.391318
 C        -1.705286         1.820978         1.738049
 C        -1.173616         3.248288         1.495369
 O        -0.597937         3.813878         2.807845
 C         0.800555         3.275935         2.811873
 C         1.241374         2.944159         1.347894
 C        -0.027616         2.610944         0.606205
 H         0.905208         0.079609         1.444128
 H        -2.375699         1.914732        -0.470923
 H        -2.557523         0.102120         0.231901
 H        -2.130920         1.363260         2.605313
 H        -1.707389         4.108780         1.090490
 H         1.416178         4.131337         3.015053
 H         0.980189         2.537447         3.597013
 H         1.832930         3.756727         0.949206
 H         1.932968         2.017641         1.297250
 H        -0.108023         2.947218        -0.412748
