19
Iteration:  4826charge 0 multiplicity 1
 O         0.142212        -0.002035         0.890075
 C        -0.590591         1.254351         0.782441
 C        -2.083629         1.229892         0.344311
 C        -1.694214         1.779449         1.679801
 C        -1.185419         3.172149         1.563781
 O        -0.529706         3.864098         2.671051
 C         0.756248         3.184478         2.860199
 C         1.244822         2.951967         1.437081
 C        -0.022950         2.677118         0.535469
 H         0.689745         0.183697         1.683038
 H        -2.501514         1.946688        -0.402147
 H        -2.378102         0.282093         0.317110
 H        -2.018001         1.622165         2.715720
 H        -1.988318         3.839136         1.321671
 H         1.427301         3.713595         3.514294
 H         0.635748         2.180695         3.337420
 H         1.665227         3.933297         1.110627
 H         1.836433         2.044366         1.324490
 H        -0.007934         2.931559        -0.537681
