19
Iteration:  2949charge 0 multiplicity 1
 O         0.238655         0.123728         0.907644
 C        -0.678694         1.285549         0.794783
 C        -2.127000         1.106373         0.417136
 C        -1.749137         1.829440         1.758922
 C        -1.227411         3.304100         1.526400
 O        -0.518921         3.863242         2.656298
 C         0.774929         3.139870         2.822941
 C         1.265193         2.858182         1.403247
 C        -0.016028         2.593979         0.528573
 H         1.047758         0.478152         1.246135
 H        -2.837121         1.703537        -0.296005
 H        -2.537064         0.066365         0.393931
 H        -2.176530         1.342584         2.638406
 H        -1.808349         4.206248         1.042888
 H         1.451738         3.746777         3.447711
 H         0.611868         2.189074         3.433225
 H         1.914748         3.598072         0.881140
 H         1.942418         1.986715         1.471010
 H         0.222740         2.948915        -0.501507
