19
Iteration:   866charge 0 multiplicity 1
 O         0.273360         0.216966         0.893938
 C        -0.606012         1.278141         0.924051
 C        -2.133322         1.155104         0.602571
 C        -1.743095         1.878242         1.846634
 C        -1.123917         3.264809         1.371186
 O        -0.538938         3.832427         2.518233
 C         0.683141         3.023448         2.764639
 C         1.331033         2.853220         1.431182
 C        -0.047750         2.623136         0.497977
 H        -0.101610        -0.577482         0.540123
 H        -2.539257         1.724328        -0.232607
 H        -2.573919         0.274019         0.785279
 H        -2.183891         1.897166         2.992523
 H        -1.770820         4.078743         1.140365
 H         1.226097         3.650595         3.510617
 H         0.399245         2.091673         3.087063
 H         1.766453         3.766529         1.234013
 H         1.941830         1.949501         1.502946
 H         0.026128         2.913738        -0.613504
