19
Iteration:  1934charge 0 multiplicity 1
 O         0.046818         0.058590         1.073093
 C        -0.625389         1.234138         0.844798
 C        -2.020393         1.241339         0.266073
 C        -1.630978         1.704065         1.838068
 C        -1.171334         3.192098         1.566389
 O        -0.485137         3.844699         2.671283
 C         0.774365         3.241285         2.769326
 C         1.245514         2.988118         1.317251
 C        -0.035163         2.586279         0.550908
 H         0.352772        -0.243541         0.155660
 H        -2.278416         2.137696        -0.432387
 H        -2.653655         0.381883         0.301544
 H        -2.151815         1.211264         2.649944
 H        -1.817465         3.923305         1.109076
 H         1.239040         3.951716         3.313121
 H         0.684582         2.468150         3.498457
 H         1.603704         3.924934         0.905734
 H         2.015086         2.146449         1.048252
 H        -0.165307         2.860807        -0.474628
