19
Iteration:   947charge 0 multiplicity 1
 O         0.057030        -0.021558         0.926869
 C        -0.654249         1.130408         0.901526
 C        -2.082830         1.304129         0.374632
 C        -1.724175         1.764255         1.831913
 C        -1.102290         3.149825         1.484606
 O        -0.564125         3.821212         2.674029
 C         0.828901         3.441123         2.766330
 C         1.278404         2.947436         1.359725
 C         0.023627         2.541895         0.624214
 H         0.469631        -0.045452         0.092106
 H        -2.362119         2.043016        -0.395109
 H        -2.734013         0.323827         0.287314
 H        -2.307397         1.529893         2.647425
 H        -1.904380         3.921960         1.266291
 H         1.303447         4.342182         3.113984
 H         1.133861         2.639162         3.428547
 H         1.815851         3.672956         0.668773
 H         1.955631         2.120067         1.367444
 H         0.183112         2.766799        -0.390161
