19
Iteration:  2843charge 0 multiplicity 1
 O         0.034297        -0.024743         0.830318
 C        -0.639517         1.176176         0.789857
 C        -1.988033         1.105441         0.344886
 C        -1.700289         1.817987         1.714321
 C        -1.104011         3.217089         1.573910
 O        -0.527047         3.852715         2.736016
 C         0.787623         3.383090         2.796886
 C         1.218573         2.968142         1.373872
 C        -0.036713         2.621045         0.664957
 H         0.791828         0.221291         1.336239
 H        -2.453749         1.839835        -0.469878
 H        -2.486486         0.100741         0.468310
 H        -2.315666         1.417972         2.499477
 H        -1.794070         3.951119         1.186797
 H         1.529465         3.995432         3.429152
 H         0.690716         2.534383         3.547094
 H         1.923864         3.647960         0.726456
 H         1.832510         2.036380         1.316405
 H        -0.037923         3.001835        -0.400768
