19
Iteration:  2895charge 0 multiplicity 1
 O         0.088252        -0.026290         0.745859
 C        -0.607448         1.165796         0.932570
 C        -2.105812         1.295022         0.434648
 C        -1.568113         1.828818         1.844008
 C        -1.167052         3.173300         1.464361
 O        -0.611735         3.870193         2.675573
 C         0.694818         3.251833         2.783117
 C         1.319913         2.962057         1.395840
 C         0.027618         2.609533         0.576230
 H         0.574865        -0.214071         1.554346
 H        -2.160815         1.895890        -0.497139
 H        -2.655544         0.305202         0.523796
 H        -1.894638         1.311791         2.743134
 H        -1.923123         3.822311         1.023501
 H         1.342638         3.906039         3.336878
 H         0.400676         2.340258         3.370607
 H         1.613113         3.887012         0.908142
 H         2.100767         2.210115         1.373183
 H         0.099611         3.060634        -0.447651
