19
Iteration:  4488charge 0 multiplicity 1
 O         0.155223         0.056658         0.894617
 C        -0.593865         1.269210         0.876899
 C        -2.025222         1.233962         0.342561
 C        -1.744767         1.830237         1.713337
 C        -1.214705         3.236209         1.517272
 O        -0.557128         3.739505         2.720530
 C         0.757783         3.183100         2.790912
 C         1.255952         2.927237         1.359847
 C        -0.013104         2.659750         0.607075
 H         0.812958         0.114645         1.622240
 H        -2.456528         1.698669        -0.607020
 H        -2.508823         0.259061         0.512366
 H        -2.080147         1.413357         2.600647
 H        -1.973999         3.998778         1.164489
 H         1.487392         3.883834         3.224726
 H         0.717830         2.246767         3.301215
 H         1.531943         3.910615         0.830337
 H         2.073667         2.158445         1.289537
 H         0.011196         2.963132        -0.468911
