19
Iteration:   726charge 0 multiplicity 1
 O         0.019134         0.075654         1.157157
 C        -0.623094         1.248908         0.775637
 C        -2.059209         1.202158         0.368237
 C        -1.669757         1.684726         1.746884
 C        -1.193622         3.225913         1.520039
 O        -0.467640         3.820501         2.621372
 C         0.848349         3.234850         2.725415
 C         1.276841         2.965551         1.350533
 C        -0.048767         2.664999         0.593996
 H         0.436580        -0.188830         0.368319
 H        -2.504681         1.908548        -0.418492
 H        -2.513999         0.281759         0.468611
 H        -2.179905         1.310035         2.749774
 H        -1.943819         3.869705         0.950561
 H         1.444483         3.990598         3.198902
 H         0.730194         2.248139         3.272211
 H         1.713550         3.817295         0.773302
 H         1.874267         2.075267         1.390335
 H         0.003637         3.089323        -0.362033
