19
Iteration:  3811charge 0 multiplicity 1
 O         0.106541         0.013396         0.862576
 C        -0.580395         1.237621         0.811259
 C        -2.048504         1.231244         0.378001
 C        -1.717900         1.767089         1.781890
 C        -1.218489         3.206331         1.568111
 O        -0.539189         3.828794         2.624941
 C         0.844779         3.183742         2.790140
 C         1.232340         3.024213         1.403952
 C        -0.012975         2.642077         0.614074
 H         0.643774         0.064653         1.669107
 H        -2.388833         2.023690        -0.401883
 H        -2.591605         0.342365         0.350845
 H        -2.117737         1.213035         2.571358
 H        -1.982399         3.903774         1.175940
 H         1.481121         3.742602         3.539415
 H         0.625044         2.224592         3.359879
 H         1.575576         3.810231         0.744286
 H         1.980241         2.135547         1.346018
 H        -0.036653         3.020884        -0.522015
