19
Iteration:  2838
 O         0.056548         0.030524         0.858497
 C        -0.638025         1.169540         0.757179
 C        -1.984970         1.163470         0.363991
 C        -1.736592         1.832054         1.742584
 C        -1.158530         3.146368         1.542473
 O        -0.531060         3.849143         2.760950
 C         0.793698         3.370310         2.767549
 C         1.195130         2.945016         1.368989
 C         0.005423         2.630704         0.633356
 H         0.891230         0.054856         1.444365
 H        -2.278966         1.770897        -0.397597
 H        -2.477788         0.146428         0.415708
 H        -2.274982         1.450678         2.634172
 H        -1.808348         3.978615         1.173108
 H         1.508727         3.931016         3.292752
 H         0.804289         2.429867         3.380538
 H         1.846509         3.515998         0.811334
 H         1.815024         2.042797         1.410484
 H         0.098124         2.980658        -0.384760
