19
Iteration:  2152charge 0 multiplicity 1
 O         0.179392         0.096291         1.027763
 C        -0.676765         1.222621         0.820819
 C        -2.061325         1.074451         0.313271
 C        -1.753546         1.859790         1.789506
 C        -1.197585         3.293540         1.563070
 O        -0.451299         3.831387         2.677352
 C         0.772011         3.164054         2.767745
 C         1.211454         2.938572         1.321695
 C        -0.053187         2.628500         0.591898
 H         0.914735         0.187325         0.456053
 H        -2.263729         1.633081        -0.588891
 H        -2.666608         0.134827         0.389802
 H        -2.221616         1.495836         2.739415
 H        -1.945076         4.067587         1.332393
 H         1.572368         3.842117         3.127580
 H         0.732020         2.221029         3.199912
 H         1.658107         3.786350         0.909264
 H         1.973320         2.099666         1.398598
 H        -0.044541         2.976764        -0.447148
