19
Iteration:  3420
 O         0.082807        -0.035985         0.872107
 C        -0.586016         1.228612         0.842226
 C        -2.010567         1.286283         0.302672
 C        -1.653246         1.778403         1.734032
 C        -1.204707         3.171915         1.661300
 O        -0.516549         3.849155         2.633911
 C         0.772792         3.216678         2.789933
 C         1.229494         3.000484         1.362681
 C        -0.051565         2.610015         0.641590
 H         0.316393        -0.151457         1.777960
 H        -2.426489         1.925344        -0.531608
 H        -2.600484         0.417407         0.307264
 H        -2.122908         1.179727         2.456699
 H        -1.875986         3.948868         1.115074
 H         1.561645         3.927670         3.284271
 H         0.769289         2.373242         3.505914
 H         1.589876         4.001119         0.915355
 H         2.140350         2.427098         1.270505
 H        -0.113968         2.892143        -0.407324
