19
Iteration:  2012
 O         0.269903         0.156905         0.985635
 C        -0.613339         1.253375         0.801942
 C        -2.194494         1.151802         0.448414
 C        -1.665219         1.785706         1.782722
 C        -1.090792         3.225501         1.499633
 O        -0.518301         3.877898         2.601992
 C         0.740527         3.147457         2.775060
 C         1.249869         2.824640         1.402987
 C        -0.069203         2.729092         0.549768
 H        -0.085671        -0.602376         0.530650
 H        -2.451408         1.778499        -0.489662
 H        -2.785367         0.217582         0.537586
 H        -2.117704         1.437338         2.797336
 H        -1.926646         3.837929         1.145748
 H         1.393247         3.775494         3.214975
 H         0.333548         2.381276         3.353972
 H         1.888853         3.658041         1.097920
 H         1.885288         1.841356         1.514209
 H        -0.184075         3.181112        -0.423334
