19
Iteration:   830charge 0 multiplicity 1
 O         0.196522         0.114407         1.047988
 C        -0.685046         1.238627         0.837641
 C        -2.030144         1.126373         0.392420
 C        -1.710170         1.826928         1.715899
 C        -1.109257         3.282071         1.516307
 O        -0.430061         3.879386         2.645731
 C         0.803071         3.138514         2.794875
 C         1.174548         2.890138         1.388977
 C        -0.145674         2.645112         0.478271
 H        -0.390849        -0.664533         0.915829
 H        -2.421735         1.784992        -0.370475
 H        -2.582752         0.140680         0.476677
 H        -2.237872         1.481497         2.592147
 H        -1.910192         3.908357         1.182029
 H         1.548351         3.766669         3.292755
 H         0.696969         2.338731         3.504948
 H         1.601279         3.816905         0.996633
 H         2.091306         2.238417         1.220927
 H         0.034907         2.985707        -0.593905
