19
Iteration:  3104charge 0 multiplicity 1
 O         0.116260         0.042017         0.886125
 C        -0.655945         1.235364         0.844171
 C        -2.076607         1.128456         0.360491
 C        -1.687316         1.784765         1.737506
 C        -1.186134         3.272031         1.536439
 O        -0.579502         3.849157         2.676540
 C         0.785137         3.213763         2.857495
 C         1.274987         2.861498         1.345183
 C         0.000792         2.683565         0.571435
 H         1.000226         0.412280         1.179195
 H        -2.462865         1.827362        -0.461755
 H        -2.568555         0.178528         0.533279
 H        -1.970058         1.605101         2.794966
 H        -2.013613         4.078341         1.221815
 H         1.551117         3.902834         3.261516
 H         0.749393         2.267240         3.342462
 H         1.869495         3.752017         0.952920
 H         1.933619         1.996502         1.459575
 H         0.109027         3.028662        -0.515338
