19
Iteration:  1518
 O         0.154711         0.129859         0.985767
 C        -0.665483         1.213682         0.875885
 C        -2.016417         1.135646         0.366341
 C        -1.770826         1.803344         1.671650
 C        -1.137597         3.212865         1.503230
 O        -0.478457         3.819679         2.686055
 C         0.804594         3.241054         2.815042
 C         1.232777         2.977798         1.321903
 C        -0.047207         2.617141         0.624928
 H        -0.339354        -0.739165         0.836951
 H        -2.204208         1.739765        -0.539527
 H        -2.553688         0.243885         0.490394
 H        -2.068494         1.365436         2.650275
 H        -1.933832         3.929382         1.151627
 H         1.484111         3.959385         3.194071
 H         0.869590         2.410826         3.415391
 H         1.531069         3.912267         0.891059
 H         1.980671         2.082960         1.234183
 H        -0.126089         2.954496        -0.409769
