19
Iteration:  3728
 O         0.168247         0.033488         0.880760
 C        -0.682931         1.245415         0.754144
 C        -2.097761         1.203799         0.358842
 C        -1.698272         1.798793         1.742482
 C        -1.225109         3.182821         1.497812
 O        -0.478047         3.854292         2.712193
 C         0.767452         3.240826         2.831174
 C         1.235175         2.925330         1.447817
 C        -0.047253         2.613633         0.609838
 H         1.125538         0.375270         1.038846
 H        -2.469884         1.842416        -0.428381
 H        -2.439771         0.160043         0.365083
 H        -2.201332         1.563472         2.699050
 H        -1.977061         3.949619         1.282334
 H         1.587200         3.860959         3.070443
 H         0.785467         2.349427         3.420842
 H         1.795989         3.668602         0.883371
 H         1.852343         2.064989         1.409523
 H         0.129926         2.896470        -0.326794
