19
Iteration:  1513charge 0 multiplicity 1
 O         0.192230         0.115956         0.969669
 C        -0.641320         1.195911         0.853121
 C        -2.049214         1.129070         0.381007
 C        -1.796681         1.860117         1.732773
 C        -1.144958         3.238352         1.495709
 O        -0.495160         3.785283         2.674418
 C         0.778102         3.246081         2.811586
 C         1.267717         2.961874         1.338111
 C        -0.087794         2.635446         0.602205
 H        -0.326592        -0.680383         0.905897
 H        -2.135712         1.821546        -0.464173
 H        -2.567829         0.066992         0.391003
 H        -2.076746         1.408294         2.669418
 H        -1.844490         3.918781         1.054104
 H         1.571389         4.042705         3.161919
 H         0.898989         2.258237         3.502986
 H         1.786418         3.858290         0.853072
 H         1.937744         2.179820         1.314902
 H        -0.052163         2.973239        -0.457642
