19
Iteration:  3978charge 0 multiplicity 1
 O         0.121121        -0.059610         0.786772
 C        -0.640740         1.248685         0.825529
 C        -2.019640         1.217934         0.361402
 C        -1.780540         1.809243         1.773456
 C        -1.125774         3.316188         1.529701
 O        -0.602112         3.731392         2.769261
 C         0.810495         3.347441         2.774849
 C         1.272518         2.939241         1.342008
 C        -0.029231         2.619599         0.656751
 H         0.902849         0.131191         1.439624
 H        -2.386799         1.656194        -0.531676
 H        -2.549796         0.178093         0.523512
 H        -2.188972         1.326876         2.748567
 H        -1.806187         3.979708         1.061292
 H         1.451949         4.072615         3.155230
 H         0.819416         2.441360         3.445812
 H         1.778237         3.845444         0.885604
 H         2.032903         2.117994         1.476375
 H         0.042539         2.981979        -0.461210
