19
Iteration:  2803charge 0 multiplicity 1
 O         0.194608         0.187625         0.953324
 C        -0.655183         1.200497         0.812894
 C        -2.120738         1.194235         0.375072
 C        -1.725787         1.819842         1.777459
 C        -1.149150         3.163455         1.460317
 O        -0.493569         3.733599         2.646160
 C         0.767421         3.183675         2.802419
 C         1.237443         2.943171         1.335924
 C        -0.032068         2.661365         0.616132
 H         0.482209        -0.010752         1.909280
 H        -2.365534         1.822327        -0.465314
 H        -2.661697         0.371567         0.427516
 H        -2.200580         1.577959         2.716868
 H        -1.861251         3.976515         1.028782
 H         1.359307         3.915813         3.410292
 H         0.785734         2.194931         3.243223
 H         1.695965         3.819914         0.918419
 H         1.844035         2.027918         1.244437
 H         0.096447         3.032990        -0.385343
