19
Iteration:  4427charge 0 multiplicity 1
 O         0.179285         0.072592         0.905132
 C        -0.598207         1.236828         0.826909
 C        -1.963744         1.201538         0.394295
 C        -1.737712         1.844535         1.747116
 C        -1.206615         3.195520         1.455668
 O        -0.493743         3.805547         2.717794
 C         0.699932         3.118731         2.848076
 C         1.209140         2.969800         1.284780
 C        -0.071187         2.671308         0.579321
 H         0.833598         0.044007         1.582074
 H        -2.186371         1.892139        -0.444169
 H        -2.712167         0.272287         0.484427
 H        -2.192760         1.574848         2.682478
 H        -1.917276         3.938071         1.204251
 H         1.408019         3.604498         3.562919
 H         0.468188         2.066142         3.349280
 H         1.568436         3.890686         0.992722
 H         2.045997         2.234789         1.233079
 H        -0.010256         3.037436        -0.446073
