19
Iteration:   723
 O         0.037065         0.088570         1.156619
 C        -0.614712         1.234101         0.776935
 C        -2.045709         1.239202         0.396836
 C        -1.671035         1.691518         1.743392
 C        -1.169311         3.225676         1.513766
 O        -0.458144         3.837958         2.616687
 C         0.802815         3.196758         2.735433
 C         1.237363         2.966013         1.332903
 C        -0.060239         2.659385         0.584750
 H         0.509957        -0.230742         0.309425
 H        -2.446226         1.886133        -0.284630
 H        -2.555038         0.244409         0.404123
 H        -2.187677         1.253617         2.702333
 H        -1.932249         3.875576         1.020288
 H         1.453460         4.027388         3.183565
 H         0.777403         2.248933         3.384592
 H         1.641789         3.729196         0.765635
 H         1.857854         2.025273         1.381486
 H         0.120161         3.032134        -0.431434
