19
Iteration:   758
 O         0.041470        -0.015140         1.093017
 C        -0.639557         1.222451         0.848664
 C        -2.063580         1.152310         0.364006
 C        -1.793818         1.821929         1.673647
 C        -1.139951         3.270290         1.469449
 O        -0.495463         3.707634         2.759910
 C         0.897848         3.380122         2.749502
 C         1.241692         3.024988         1.313483
 C         0.009645         2.569215         0.583928
 H         0.074145        -0.524542         0.205282
 H        -2.407449         1.683589        -0.563012
 H        -2.551868         0.282448         0.585549
 H        -2.500077         1.571857         2.618528
 H        -1.606636         4.188103         0.955671
 H         1.559404         4.192355         3.180350
 H         1.068808         2.484937         3.445337
 H         1.662465         3.928094         0.843014
 H         2.103606         2.358511         1.272586
 H        -0.034994         2.916857        -0.402576
