19
Iteration:  3838
 O         0.120698         0.114683         0.910611
 C        -0.591612         1.292229         0.830117
 C        -2.029806         1.177232         0.408172
 C        -1.721781         1.857445         1.757845
 C        -1.170600         3.215115         1.570339
 O        -0.566295         3.758516         2.704810
 C         0.779647         3.134110         2.799030
 C         1.225594         2.899753         1.328166
 C         0.004933         2.651794         0.518437
 H         1.004620         0.358702         1.203705
 H        -2.405164         1.690006        -0.435934
 H        -2.452197         0.128495         0.350735
 H        -2.395672         1.661010         2.701390
 H        -1.898973         3.957704         1.220695
 H         1.409298         3.810560         3.335954
 H         0.612244         2.249249         3.382655
 H         1.664003         3.743501         0.762734
 H         1.959460         2.139383         1.353968
 H        -0.073971         3.020786        -0.460710
