19
Iteration:  2148charge 0 multiplicity 1
 O         0.157617         0.089562         1.028226
 C        -0.650784         1.207949         0.849276
 C        -2.061001         1.099611         0.296353
 C        -1.722670         1.862506         1.797529
 C        -1.185219         3.302787         1.574406
 O        -0.468157         3.838609         2.679117
 C         0.794416         3.163700         2.758267
 C         1.211685         2.926955         1.316739
 C        -0.095085         2.626632         0.594903
 H         0.968952         0.201718         0.427471
 H        -2.276781         1.669311        -0.660116
 H        -2.489742         0.156523         0.377415
 H        -2.249668         1.376432         2.678865
 H        -2.017245         3.990372         1.162172
 H         1.592016         3.829184         3.245497
 H         0.727247         2.175777         3.299050
 H         1.626369         3.810518         0.719479
 H         1.927099         2.148132         1.468600
 H        -0.085231         2.976146        -0.468834
