19
Iteration:  2883
 O         0.035711         0.006627         0.765168
 C        -0.630292         1.203643         0.814274
 C        -2.046936         1.281025         0.435277
 C        -1.642999         1.733076         1.826142
 C        -1.058415         3.183730         1.536959
 O        -0.576080         3.837470         2.594536
 C         0.712523         3.309482         2.847439
 C         1.269386         3.025514         1.380464
 C         0.014686         2.534283         0.647660
 H         0.721612        -0.160468         1.482256
 H        -2.530889         1.910476        -0.255016
 H        -2.514734         0.220132         0.458498
 H        -2.241444         1.488884         2.720517
 H        -1.673027         3.881680         0.939620
 H         1.157082         4.015459         3.501046
 H         0.827247         2.320729         3.351734
 H         1.676330         3.889895         0.919886
 H         2.121074         2.350522         1.480711
 H        -0.063981         2.790761        -0.415109
