19
Iteration:  4348
 O         0.065738         0.064997         0.807935
 C        -0.600590         1.293276         0.852363
 C        -2.033644         1.187646         0.382447
 C        -1.725591         1.798669         1.748269
 C        -1.109786         3.168814         1.516975
 O        -0.645105         3.787706         2.708696
 C         0.811112         3.243169         2.820384
 C         1.314109         2.986509         1.392330
 C        -0.026531         2.614320         0.590539
 H         0.851738        -0.113845         1.263677
 H        -2.377837         1.723705        -0.473512
 H        -2.364504         0.155918         0.497202
 H        -2.196202         1.390212         2.684789
 H        -1.770650         3.911759         1.068787
 H         1.336256         3.994826         3.289908
 H         0.665801         2.346738         3.452005
 H         1.847628         3.863643         1.012666
 H         2.087076         2.107331         1.593642
 H        -0.113602         2.933182        -0.492605
