19
Iteration:   282
 O         0.111028         0.026380         1.079248
 C        -0.677195         1.218011         0.738899
 C        -2.091643         1.178288         0.405094
 C        -1.635288         1.770597         1.773448
 C        -1.164904         3.240972         1.518668
 O        -0.504408         3.923747         2.590821
 C         0.813903         3.271156         2.844475
 C         1.206210         2.891641         1.384106
 C        -0.025454         2.611522         0.520272
 H         0.535536        -0.256154         0.252647
 H        -2.539298         1.761581        -0.344766
 H        -2.621037         0.198523         0.485411
 H        -2.074761         1.330265         2.718327
 H        -1.911136         3.872956         1.000298
 H         1.524263         3.947681         3.378587
 H         0.646840         2.383744         3.426045
 H         1.808402         3.698676         0.983706
 H         1.940697         2.130871         1.459055
 H         0.128304         3.012228        -0.488100
