19
Iteration:  3735
 O         0.120991         0.071932         0.858555
 C        -0.635310         1.195303         0.778445
 C        -2.116215         1.175764         0.364543
 C        -1.683397         1.803953         1.725047
 C        -1.153029         3.201572         1.517682
 O        -0.538640         3.845547         2.721867
 C         0.821006         3.258953         2.806611
 C         1.220853         2.909973         1.430023
 C        -0.058251         2.611959         0.642053
 H         1.008323         0.383789         1.124129
 H        -2.329015         1.932391        -0.398830
 H        -2.504803         0.211874         0.347097
 H        -1.989901         1.497624         2.676347
 H        -1.878800         3.911646         1.101058
 H         1.423447         4.054254         3.367743
 H         0.705945         2.372123         3.489588
 H         1.761881         3.741839         0.908708
 H         1.859012         1.938960         1.255291
 H         0.124094         2.848553        -0.523580
