19
Iteration:  2970
 O         0.168828         0.124672         0.927394
 C        -0.577369         1.201308         0.848079
 C        -2.034550         1.204734         0.460816
 C        -1.725970         1.936795         1.741905
 C        -1.121335         3.180108         1.502806
 O        -0.584158         3.731860         2.646370
 C         0.738879         3.107042         2.772197
 C         1.215932         2.903290         1.346912
 C        -0.067346         2.667318         0.586827
 H         1.112368         0.339024         1.114680
 H        -2.322496         1.766860        -0.443658
 H        -2.748987         0.332063         0.609564
 H        -2.181233         1.761323         2.727042
 H        -1.762054         4.087304         1.062641
 H         1.297448         3.903435         3.240223
 H         0.700722         2.291470         3.505290
 H         1.735427         3.764103         0.899699
 H         1.946042         2.061498         1.245755
 H        -0.022120         3.039609        -0.450069
