19
Iteration:   319
 O         0.202121         0.113942         0.937063
 C        -0.630877         1.240995         0.887464
 C        -2.019877         1.201043         0.483798
 C        -1.685057         1.860102         1.904741
 C        -1.126076         3.209979         1.421731
 O        -0.550519         3.984490         2.502685
 C         0.752902         3.114552         2.816091
 C         1.203628         2.831710         1.432966
 C        -0.054363         2.555856         0.541949
 H        -0.020250        -0.309104         0.140871
 H        -2.365918         1.973310        -0.297575
 H        -2.379167         0.224349         0.445206
 H        -2.240318         1.329401         2.739270
 H        -1.926682         3.872548         1.092854
 H         1.304880         3.896632         3.410537
 H         0.608507         2.271310         3.531605
 H         1.603149         3.725978         0.977977
 H         1.788911         1.883311         1.416486
 H         0.176068         2.859847        -0.549907
