19
Iteration:  3280
 O         0.110489        -0.020669         0.883879
 C        -0.622987         1.209975         0.756674
 C        -2.075190         1.157030         0.422610
 C        -1.706334         1.805060         1.769584
 C        -1.126104         3.243783         1.485880
 O        -0.554454         3.818513         2.745536
 C         0.785803         3.215583         2.808759
 C         1.194762         3.102935         1.387032
 C        -0.005092         2.619367         0.534315
 H         0.185418        -0.107521         1.825782
 H        -2.244585         1.895358        -0.407989
 H        -2.644128         0.233656         0.291805
 H        -2.008595         1.349072         2.632123
 H        -1.740938         3.967166         0.976025
 H         1.570651         3.711265         3.442751
 H         0.777157         2.098552         3.193445
 H         1.769520         3.937262         0.903495
 H         1.990912         2.312141         1.375097
 H         0.356207         3.056514        -0.476414
