19
Iteration:   389charge 0 multiplicity 1
 O         0.196016         0.074360         0.994429
 C        -0.610925         1.172617         0.882971
 C        -2.006056         1.315148         0.393899
 C        -1.694953         1.791549         1.779681
 C        -1.147544         3.236973         1.511354
 O        -0.578207         3.883897         2.597793
 C         0.825085         3.205784         2.765030
 C         1.191783         2.860213         1.329666
 C        -0.068201         2.585503         0.607445
 H        -0.181281        -0.771961         0.868434
 H        -2.277394         1.991794        -0.395942
 H        -2.551050         0.299013         0.472991
 H        -2.264821         1.541382         2.612142
 H        -1.818173         3.945994         0.992652
 H         1.489385         3.904924         3.203944
 H         0.586763         2.426353         3.517105
 H         1.557344         3.919359         1.077989
 H         1.969237         2.093238         1.185456
 H        -0.007203         2.772806        -0.441744
