19
Iteration:  3860charge 0 multiplicity 1
 O         0.197640         0.111036         0.901787
 C        -0.634447         1.216690         0.810269
 C        -2.143716         1.113337         0.418144
 C        -1.789847         1.842862         1.674496
 C        -1.158477         3.306235         1.485964
 O        -0.481643         3.738579         2.674919
 C         0.755118         3.086337         2.835117
 C         1.273760         2.951252         1.363153
 C        -0.069121         2.701173         0.621080
 H         0.984857         0.524661         1.340502
 H        -2.528462         1.547744        -0.430945
 H        -2.579161         0.072348         0.550095
 H        -1.938119         1.784016         2.839064
 H        -1.639010         4.234400         1.173989
 H         1.377134         3.780233         3.374335
 H         0.715054         2.176756         3.445216
 H         1.684509         3.921984         0.996963
 H         2.014384         2.199348         1.230749
 H        -0.097398         3.008964        -0.443997
