19
Iteration:  4159charge 0 multiplicity 1
 O         0.117789         0.074373         0.884506
 C        -0.566814         1.253919         0.871404
 C        -2.112210         1.160088         0.367835
 C        -1.774281         1.800308         1.691114
 C        -1.163125         3.182986         1.525036
 O        -0.459121         3.719276         2.706255
 C         0.796331         3.261624         2.838589
 C         1.233356         3.039690         1.371662
 C        -0.035150         2.626638         0.539499
 H         0.382987        -0.206707         1.756767
 H        -2.463409         1.923742        -0.347745
 H        -2.575929         0.120389         0.156611
 H        -2.120598         1.450543         2.583880
 H        -1.944103         3.916418         1.103264
 H         1.455604         3.943323         3.556607
 H         0.745653         2.240139         3.303139
 H         1.680231         3.993099         0.993727
 H         2.074096         2.298768         1.304025
 H        -0.056629         3.179701        -0.520624
