19
Iteration:  3640charge 0 multiplicity 1
 O         0.090788         0.107413         0.909087
 C        -0.575137         1.272099         0.829417
 C        -2.075197         1.154035         0.365857
 C        -1.739024         1.783036         1.717676
 C        -1.175293         3.235504         1.598594
 O        -0.525577         3.799003         2.688695
 C         0.780119         3.148274         2.822894
 C         1.258528         2.995261         1.298968
 C         0.027235         2.634592         0.506082
 H         0.212742         0.009455         1.921695
 H        -2.454144         1.720703        -0.491093
 H        -2.426580         0.182972         0.425921
 H        -2.070884         1.295470         2.589394
 H        -1.984365         3.956555         1.451968
 H         1.434281         3.845192         3.374428
 H         0.618979         2.204799         3.351558
 H         1.776035         3.912462         1.034799
 H         2.016053         2.295666         1.374371
 H         0.072093         2.866980        -0.472504
