19
Iteration:  4947
 O         0.199642         0.124431         0.852969
 C        -0.645823         1.219632         0.791294
 C        -2.073380         1.175068         0.391822
 C        -1.715245         1.835832         1.708066
 C        -1.135796         3.287785         1.464016
 O        -0.545593         3.802177         2.724320
 C         0.745704         3.114287         2.831520
 C         1.259673         2.941545         1.453301
 C        -0.058045         2.607413         0.524041
 H         0.698968         0.219362         1.731638
 H        -2.303201         1.906128        -0.258172
 H        -2.528364         0.146579         0.528460
 H        -2.217670         1.407292         2.741911
 H        -1.838886         4.004407         1.144713
 H         1.269799         3.790190         3.389245
 H         0.511236         2.265038         3.469793
 H         1.776960         3.773975         0.976893
 H         1.954107         2.107792         1.451588
 H        -0.059566         2.840403        -0.583064
