19
Iteration:   358
 O         0.136386         0.078408         0.940882
 C        -0.671614         1.193515         0.759514
 C        -2.147334         1.134312         0.524562
 C        -1.747426         1.803173         1.725611
 C        -1.103642         3.266950         1.483104
 O        -0.590009         3.902556         2.600131
 C         0.795229         3.218732         2.813158
 C         1.355440         2.957530         1.452530
 C         0.034555         2.678071         0.536642
 H        -0.126770        -0.889619         0.772113
 H        -2.635804         1.470954        -0.331025
 H        -2.398121        -0.007206         0.732427
 H        -1.899726         1.569039         2.879992
 H        -1.797504         3.903265         0.879912
 H         1.511523         3.851060         3.396009
 H         0.543314         2.253378         3.265298
 H         2.145605         3.711141         1.103154
 H         1.881215         2.010707         1.397344
 H         0.102879         2.882912        -0.488161
