19
Iteration:  2416charge 0 multiplicity 1
 O         0.245180         0.083086         0.876559
 C        -0.635431         1.261945         0.867659
 C        -2.060334         1.209809         0.486671
 C        -1.712810         1.862658         1.803579
 C        -1.189115         3.237133         1.512016
 O        -0.555530         3.839082         2.609673
 C         0.723899         3.125432         2.731426
 C         1.200145         2.888259         1.345657
 C        -0.014677         2.633158         0.566614
 H         0.324198        -0.224625         1.780858
 H        -2.475642         1.807751        -0.327994
 H        -2.427637         0.267923         0.565451
 H        -1.982372         1.294122         2.757378
 H        -1.776635         4.083289         1.021489
 H         1.436956         3.738482         3.452331
 H         0.625233         2.212287         3.379415
 H         1.784892         3.745555         0.988253
 H         1.930829         2.108055         1.112884
 H         0.037851         3.059897        -0.473877
