19
Iteration:  1833charge 0 multiplicity 1
 O         0.131766         0.082820         1.044006
 C        -0.598736         1.224834         0.828670
 C        -1.936630         1.177464         0.343059
 C        -1.699040         1.783377         1.763460
 C        -1.174886         3.259359         1.553832
 O        -0.474793         3.900362         2.653735
 C         0.742996         3.065560         2.716951
 C         1.160070         3.028812         1.361506
 C        -0.023655         2.641731         0.595276
 H        -0.232532        -0.625866         0.556670
 H        -2.514120         1.766093        -0.382964
 H        -2.480710         0.109823         0.366402
 H        -2.164563         1.248305         2.642582
 H        -1.889784         4.024702         1.289261
 H         1.443872         3.616541         3.340903
 H         0.423534         2.169032         3.211777
 H         1.547568         3.988391         0.846437
 H         1.986075         2.264707         1.259588
 H        -0.010944         3.006472        -0.434058
