19
Iteration:   261
 O        -0.000774         0.018955         1.081479
 C        -0.611208         1.288611         0.842769
 C        -2.069670         1.137154         0.439583
 C        -1.711765         1.857628         1.677293
 C        -1.106975         3.223962         1.447561
 O        -0.542656         3.768699         2.655468
 C         0.786807         3.288439         2.761795
 C         1.295526         2.944613         1.340162
 C         0.000408         2.608235         0.615894
 H         0.409297        -0.202420         0.170082
 H        -2.509926         1.616763        -0.380902
 H        -2.395377         0.069978         0.501983
 H        -1.908280         1.397008         2.711616
 H        -1.816516         3.985707         1.099555
 H         1.279970         4.263927         3.108180
 H         0.887176         2.518620         3.494703
 H         1.793041         3.778595         0.972212
 H         2.084469         2.253786         1.277848
 H         0.119021         2.993891        -0.431819
