19
Iteration:   357
 O         0.143010         0.067787         0.939280
 C        -0.672307         1.193170         0.756766
 C        -2.147440         1.129458         0.531216
 C        -1.747513         1.808204         1.728795
 C        -1.096061         3.275655         1.481371
 O        -0.597815         3.910414         2.602816
 C         0.793448         3.218461         2.813927
 C         1.356940         2.953101         1.463226
 C         0.033973         2.683816         0.537491
 H        -0.114092        -0.864159         0.756952
 H        -2.681361         1.466123        -0.328777
 H        -2.414194        -0.012036         0.734405
 H        -1.931941         1.578002         2.806112
 H        -1.806176         3.880991         0.877663
 H         1.485793         3.828807         3.365379
 H         0.568775         2.209461         3.249824
 H         2.166623         3.700335         1.043828
 H         1.904294         1.997177         1.352706
 H         0.098192         2.900579        -0.478751
