19
Iteration:   595
 O         0.195588         0.037234         0.879582
 C        -0.695272         1.121557         0.892700
 C        -1.989152         1.231811         0.347061
 C        -1.833204         1.794162         1.787382
 C        -1.148191         3.211589         1.552972
 O        -0.470383         3.932357         2.651514
 C         0.836878         3.357560         2.769207
 C         1.252340         2.913583         1.372741
 C        -0.055614         2.553466         0.663665
 H        -0.298405        -0.782554         0.951191
 H        -2.283814         1.919084        -0.502953
 H        -2.501194         0.190618         0.265802
 H        -2.461223         1.314371         2.617475
 H        -1.895050         3.903938         1.080223
 H         1.499316         4.047637         3.252428
 H         0.678190         2.481953         3.476013
 H         1.683304         3.805152         0.837725
 H         1.945163         2.080027         1.182953
 H        -0.121558         2.792817        -0.476053
