19
Iteration:  2074
 O         0.112428        -0.010427         0.927223
 C        -0.603210         1.211467         0.820918
 C        -2.036623         1.116661         0.441722
 C        -1.726135         1.864327         1.760980
 C        -1.153090         3.313720         1.497775
 O        -0.548587         3.785248         2.659527
 C         0.787979         3.281330         2.795520
 C         1.290340         3.014660         1.417062
 C        -0.033400         2.623312         0.554891
 H        -0.379647        -0.560647         0.283727
 H        -2.492364         1.525447        -0.508885
 H        -2.333699         0.160148         0.678244
 H        -2.149218         1.493454         2.750239
 H        -1.894907         4.093686         1.222548
 H         1.538108         3.949619         3.402047
 H         0.903961         2.220376         3.321965
 H         1.643693         3.943031         1.045389
 H         2.097292         2.272314         1.296437
 H        -0.010756         2.866574        -0.536127
