19
Iteration:   950charge 0 multiplicity 1
 O         0.060953        -0.054939         0.935498
 C        -0.655382         1.137193         0.907301
 C        -2.091947         1.300255         0.374665
 C        -1.730980         1.749036         1.789175
 C        -1.101282         3.184056         1.498630
 O        -0.564426         3.803622         2.677784
 C         0.834043         3.472645         2.769002
 C         1.288473         2.959265         1.349597
 C         0.022465         2.546373         0.634064
 H         0.542278        -0.009825         0.045881
 H        -2.457399         2.093315        -0.417758
 H        -2.729875         0.423077         0.373742
 H        -2.357113         1.482437         2.727757
 H        -1.916218         3.919452         1.212193
 H         1.341281         4.388999         3.161243
 H         1.126334         2.549391         3.464634
 H         1.805896         3.709920         0.665818
 H         2.009509         2.012400         1.345554
 H         0.155247         2.723165        -0.444606
