19
Iteration:  1129charge 0 multiplicity 1
 O         0.215290         0.111540         0.858846
 C        -0.612243         1.179457         0.846270
 C        -2.054640         1.172529         0.413822
 C        -1.807346         1.746466         1.747067
 C        -1.200068         3.232265         1.560597
 O        -0.510257         3.926816         2.615011
 C         0.829027         3.280791         2.828243
 C         1.307066         2.893313         1.389237
 C        -0.102293         2.623757         0.639844
 H        -0.419227        -0.691441         0.891881
 H        -2.366292         1.728497        -0.389284
 H        -2.550215         0.150473         0.288624
 H        -2.292604         1.431510         2.673746
 H        -1.864069         3.913034         1.097070
 H         1.633494         3.928415         3.256354
 H         0.753384         2.437956         3.511658
 H         1.936558         3.684258         0.981297
 H         1.914549         2.000625         1.227465
 H        -0.081966         2.735377        -0.414334
