19
Iteration:  1874charge 0 multiplicity 1
 O         0.231617         0.177666         1.040921
 C        -0.664886         1.314598         0.792571
 C        -2.102458         1.204338         0.426818
 C        -1.813974         1.855451         1.696366
 C        -1.163321         3.197667         1.459512
 O        -0.515596         3.636413         2.699306
 C         0.860019         3.274637         2.761593
 C         1.198721         2.898623         1.402495
 C        -0.039058         2.585550         0.591627
 H         0.096013        -0.555843         0.352934
 H        -2.390401         1.639757        -0.492622
 H        -2.556997         0.257778         0.489377
 H        -2.190828         1.615348         2.752412
 H        -1.666388         4.030098         0.918518
 H         1.522456         4.225580         3.017390
 H         0.905892         2.371345         3.408908
 H         1.650299         3.870846         1.062449
 H         1.920980         2.174195         1.381509
 H         0.204607         2.839176        -0.490092
