19
Iteration:   814charge 0 multiplicity 1
 O         0.113979         0.090182         1.105313
 C        -0.641928         1.231530         0.802359
 C        -2.060463         1.193107         0.293574
 C        -1.722241         1.791219         1.734209
 C        -1.193392         3.219046         1.561182
 O        -0.465509         3.796205         2.631110
 C         0.846354         3.256280         2.793910
 C         1.260385         2.937103         1.253846
 C        -0.048630         2.629902         0.636101
 H        -0.344812        -0.710279         0.987261
 H        -2.261460         1.745926        -0.655969
 H        -2.639871         0.275207         0.414791
 H        -2.047995         1.364904         2.748036
 H        -1.775804         4.131496         1.229037
 H         1.415912         4.072617         3.290702
 H         0.846183         2.291731         3.441693
 H         1.701145         3.924319         0.881954
 H         1.871399         2.079952         1.131789
 H        -0.163462         3.010609        -0.343202
