19
Iteration:  2655charge 0 multiplicity 1
 O         0.168487        -0.003281         0.806431
 C        -0.634492         1.194692         0.775185
 C        -2.135423         1.299726         0.451420
 C        -1.587565         1.715615         1.812093
 C        -1.220485         3.178536         1.514594
 O        -0.580563         3.866094         2.567171
 C         0.783879         3.255441         2.813279
 C         1.296492         2.957513         1.482417
 C        -0.033866         2.609712         0.598074
 H         0.037083        -0.272541         1.708818
 H        -2.411833         2.216888        -0.268845
 H        -2.859401         0.473643         0.491372
 H        -1.853061         1.360182         2.785299
 H        -1.932369         3.900209         1.019459
 H         1.431674         4.012878         3.245152
 H         0.863832         2.452199         3.485490
 H         1.746663         3.850115         0.952243
 H         2.127155         2.176118         1.494303
 H         0.073493         2.950525        -0.459365
