19
Iteration:   677
 O         0.216345         0.156562         0.962510
 C        -0.603622         1.276545         0.855408
 C        -2.081230         1.128508         0.564840
 C        -1.832344         1.882785         1.779339
 C        -1.121721         3.280516         1.479670
 O        -0.466038         3.873323         2.540458
 C         0.694631         3.110750         2.782295
 C         1.247036         2.869993         1.382888
 C         0.003247         2.600507         0.568188
 H         0.119168        -0.445474         0.130660
 H        -2.570954         1.560716        -0.294587
 H        -2.377256         0.048657         0.690716
 H        -2.114349         1.662614         2.733673
 H        -1.714567         3.994734         0.947758
 H         1.427215         3.592832         3.508253
 H         0.254623         2.199346         3.237063
 H         1.803633         3.779817         1.194513
 H         1.840554         1.944076         1.199433
 H        -0.085537         2.865262        -0.536726
