19
Iteration:  1142charge 0 multiplicity 1
 O         0.151999         0.059377         0.836047
 C        -0.692734         1.223035         0.894419
 C        -2.008491         1.174370         0.309733
 C        -1.731229         1.804459         1.817590
 C        -1.146169         3.139803         1.570714
 O        -0.500639         3.934914         2.678315
 C         0.812195         3.366482         2.791470
 C         1.226542         2.870415         1.355573
 C        -0.002286         2.543320         0.633550
 H        -0.265106        -0.738886         0.641017
 H        -2.309784         1.720832        -0.550202
 H        -2.385898         0.211751         0.498248
 H        -2.395206         1.356576         2.649850
 H        -1.850496         3.856680         1.153145
 H         1.314962         4.236853         3.263683
 H         0.779363         2.475339         3.521016
 H         1.621241         3.763818         0.766003
 H         1.883072         2.071185         1.499798
 H        -0.048219         3.143778        -0.341035
