19
Iteration:  2442
 O         0.256190         0.220272         1.003549
 C        -0.692976         1.210512         0.882888
 C        -2.042832         1.194455         0.348350
 C        -1.781596         1.763855         1.748596
 C        -1.206061         3.206786         1.587370
 O        -0.472070         3.806728         2.654666
 C         0.826023         3.191821         2.729338
 C         1.211197         2.891214         1.299319
 C        -0.067728         2.636050         0.555526
 H         0.061528        -0.343139         1.757348
 H        -2.237666         1.899656        -0.511387
 H        -2.714491         0.201541         0.324168
 H        -2.364154         1.245225         2.461364
 H        -1.874865         4.015703         1.281169
 H         1.504071         3.854175         3.291478
 H         0.778642         2.356648         3.298444
 H         1.911042         3.650934         0.832256
 H         1.802478         1.968009         1.196766
 H        -0.106174         3.054006        -0.472179
