19
Iteration:  1590charge 0 multiplicity 1
 O         0.088152         0.099278         1.102946
 C        -0.611466         1.247126         0.772158
 C        -2.096762         1.106779         0.424544
 C        -1.821123         1.856148         1.700623
 C        -1.161896         3.232211         1.534338
 O        -0.520541         3.731613         2.682553
 C         0.790683         3.240668         2.776990
 C         1.337796         3.000922         1.337018
 C        -0.025603         2.627101         0.518854
 H         0.734853         0.019638         0.306967
 H        -2.391833         1.686037        -0.472305
 H        -2.659672         0.110905         0.563580
 H        -1.899069         1.399366         2.725884
 H        -1.689311         3.983208         0.987158
 H         1.531969         3.815789         3.455422
 H         0.804745         2.189087         3.231259
 H         1.601638         4.031792         0.954738
 H         2.029264         2.268680         1.258259
 H         0.161253         2.934134        -0.536882
