19
Iteration:  3483charge 0 multiplicity 1
 O         0.159985         0.085167         0.812935
 C        -0.665024         1.259952         0.808540
 C        -2.065989         1.129962         0.423783
 C        -1.704020         1.850901         1.795737
 C        -1.130481         3.265092         1.497085
 O        -0.561075         3.845456         2.719801
 C         0.769513         3.207899         2.860644
 C         1.202308         2.866103         1.393513
 C        -0.014622         2.582251         0.488723
 H         1.029735         0.174794         1.145467
 H        -2.484468         1.824749        -0.309221
 H        -2.310596         0.136890         0.508226
 H        -2.079434         1.536097         2.687902
 H        -1.730178         4.027701         0.904538
 H         1.303277         3.971044         3.446578
 H         0.785246         2.330096         3.559613
 H         1.845644         3.694369         1.092566
 H         1.730548         1.970039         1.544825
 H        -0.125119         2.962844        -0.519152
