19
Iteration:  4889charge 0 multiplicity 1
 O         0.099426        -0.010802         0.853375
 C        -0.638439         1.157421         0.802423
 C        -2.044016         1.277075         0.314048
 C        -1.737647         1.809207         1.670353
 C        -1.111598         3.152241         1.588529
 O        -0.548995         3.785122         2.697054
 C         0.783189         3.283438         2.822380
 C         1.274221         3.008031         1.404701
 C        -0.042215         2.600014         0.652212
 H         0.681337        -0.042417         1.611351
 H        -2.415101         1.826769        -0.582560
 H        -2.562195         0.391052         0.323608
 H        -2.093508         1.498596         2.549266
 H        -1.787646         3.914837         1.159762
 H         1.339959         4.151388         3.369530
 H         0.760011         2.474164         3.559718
 H         1.550823         4.030312         0.997389
 H         2.180549         2.284392         1.387121
 H        -0.014061         3.087886        -0.435259
