19
Iteration:  4681
 O         0.116559         0.015051         0.836643
 C        -0.668443         1.241171         0.825154
 C        -1.991593         1.215850         0.354108
 C        -1.751148         1.804733         1.714791
 C        -1.111643         3.235441         1.470135
 O        -0.539186         3.755573         2.713689
 C         0.783576         3.253341         2.820788
 C         1.255441         3.017507         1.418389
 C        -0.084074         2.615046         0.650956
 H         0.609347         0.174655         1.720369
 H        -2.367385         1.668380        -0.556216
 H        -2.525235         0.268418         0.449666
 H        -2.234880         1.320151         2.522549
 H        -1.896289         3.885274         1.078730
 H         1.596654         3.884912         3.363316
 H         0.736079         2.330524         3.476293
 H         1.688837         4.052818         1.089229
 H         2.111129         2.190814         1.233181
 H         0.106487         2.759803        -0.431776
