19
Iteration:   381
 O         0.156542         0.108112         0.983736
 C        -0.617384         1.247723         0.858060
 C        -2.033254         1.217681         0.414283
 C        -1.653593         1.796416         1.758002
 C        -1.120502         3.259778         1.502510
 O        -0.536477         3.842185         2.561908
 C         0.752299         3.220831         2.808515
 C         1.233938         2.854239         1.409689
 C        -0.033453         2.593445         0.593070
 H        -0.369374        -0.637611         0.846004
 H        -2.470756         1.897879        -0.265468
 H        -2.614151         0.233291         0.506784
 H        -2.314171         1.452555         2.776036
 H        -1.930152         3.849887         1.020728
 H         1.425915         4.073376         3.194351
 H         0.747436         2.310415         3.395973
 H         1.444525         3.733619         0.775164
 H         2.038877         2.223421         1.153235
 H         0.045747         2.846404        -0.453223
