19
Iteration:  4555
 O         0.079190         0.012493         0.832969
 C        -0.579442         1.230042         0.802454
 C        -2.097121         1.201006         0.364968
 C        -1.646613         1.813140         1.740302
 C        -1.119383         3.184250         1.506958
 O        -0.574079         3.787638         2.757051
 C         0.687688         3.288333         2.807279
 C         1.261734         2.978878         1.417694
 C         0.001543         2.638608         0.544441
 H         0.717502         0.100768         1.594866
 H        -2.526533         1.759689        -0.437429
 H        -2.386222         0.063056         0.605125
 H        -1.930412         1.467938         2.729250
 H        -1.751295         3.945552         1.006127
 H         1.233616         3.949494         3.444177
 H         0.740664         2.268546         3.217993
 H         1.820683         3.863344         1.079810
 H         1.965454         2.130481         1.373967
 H         0.179245         3.100361        -0.461730
