19
Iteration:  4424
 O         0.185272         0.077176         0.889891
 C        -0.619133         1.250329         0.876672
 C        -1.959766         1.219924         0.389994
 C        -1.737925         1.826954         1.730525
 C        -1.228547         3.182406         1.460766
 O        -0.491368         3.810536         2.705667
 C         0.736413         3.121030         2.831600
 C         1.222532         2.942919         1.285259
 C        -0.085455         2.681516         0.583873
 H         0.854808        -0.025385         1.659135
 H        -2.173796         1.812864        -0.377459
 H        -2.617102         0.389808         0.480517
 H        -2.168470         1.543102         2.621737
 H        -2.010646         3.888711         1.190820
 H         1.263623         3.649537         3.547310
 H         0.369566         2.073007         3.347862
 H         1.578947         3.999412         1.124050
 H         2.106147         2.167505         1.240678
 H         0.011140         3.061465        -0.467641
