19
Iteration:  3687
 O         0.131612         0.095842         0.864384
 C        -0.615742         1.254816         0.877290
 C        -2.041961         1.201618         0.378763
 C        -1.669361         1.818559         1.834115
 C        -1.212199         3.264377         1.438836
 O        -0.494681         3.819847         2.703675
 C         0.709105         3.091624         2.771834
 C         1.216645         2.936260         1.375826
 C         0.001278         2.620603         0.538569
 H         0.897732         0.275098         1.414662
 H        -2.525185         1.820500        -0.412254
 H        -2.387955         0.088431         0.546727
 H        -2.183941         1.515500         2.816270
 H        -1.893474         3.996186         0.975400
 H         1.305703         3.661494         3.478769
 H         0.503226         2.083990         3.235041
 H         1.610023         3.889277         1.067527
 H         2.070568         2.288393         1.551001
 H         0.011157         2.940604        -0.543423
