19
Iteration:     1
 O         0.128935         0.092044         1.079371
 C        -0.621545         1.230995         0.840187
 C        -2.053602         1.190957         0.396491
 C        -1.704458         1.822095         1.729815
 C        -1.152849         3.232457         1.490454
 O        -0.527117         3.826855         2.606407
 C         0.744736         3.208387         2.786324
 C         1.261081         2.917918         1.368511
 C        -0.018367         2.621112         0.578364
 H         0.281231        -0.354821         0.239235
 H        -2.408693         1.800243        -0.433250
 H        -2.523255         0.215536         0.477462
 H        -2.118396         1.459090         2.662581
 H        -1.847443         3.962696         1.065541
 H         1.372287         3.901959         3.351699
 H         0.648286         2.277981         3.363981
 H         1.756735         3.800705         0.954500
 H         1.964064         2.081259         1.346643
 H         0.039260         2.934115        -0.468335
