19
Iteration:  3340charge 0 multiplicity 1
 O         0.235590         0.107585         0.945337
 C        -0.701616         1.268235         0.818436
 C        -2.083639         1.133956         0.373649
 C        -1.700831         1.931514         1.717962
 C        -1.152870         3.276500         1.564325
 O        -0.547110         3.786526         2.705184
 C         0.703924         3.096696         2.803510
 C         1.239576         2.855349         1.294224
 C         0.001140         2.679189         0.584400
 H         1.036279         0.460178         1.296513
 H        -2.440034         1.507305        -0.544409
 H        -2.422550         0.089731         0.743952
 H        -2.334873         1.384850         2.506948
 H        -1.766539         4.204096         1.119397
 H         1.326756         3.747815         3.479327
 H         0.608792         2.145476         3.338154
 H         1.629382         3.721060         0.776638
 H         1.883101         1.992392         1.235116
 H         0.047358         3.010558        -0.431052
