19
Iteration:  4405
 O         0.189927         0.111943         0.872327
 C        -0.598805         1.280702         0.832854
 C        -2.008072         1.218605         0.354612
 C        -1.771401         1.759773         1.796338
 C        -1.205106         3.241520         1.578352
 O        -0.532120         3.827058         2.608002
 C         0.712755         3.100295         2.788519
 C         1.248428         2.990131         1.347386
 C        -0.031061         2.637428         0.651737
 H         0.613982        -0.083234         1.779266
 H        -2.323475         1.899399        -0.445939
 H        -2.396864         0.058426         0.212682
 H        -2.282157         1.360310         2.616084
 H        -1.830615         4.024578         1.231405
 H         1.454905         3.667458         3.337434
 H         0.691000         2.100753         3.316068
 H         1.759622         3.752728         0.942042
 H         1.908986         2.048654         1.343604
 H        -0.030036         2.876593        -0.413834
