19
Iteration:  1515
 O         0.173151         0.121051         0.975173
 C        -0.652552         1.201040         0.863654
 C        -2.033104         1.132843         0.376468
 C        -1.787501         1.838513         1.701558
 C        -1.139844         3.229236         1.494960
 O        -0.485569         3.799817         2.679933
 C         0.782569         3.242700         2.815797
 C         1.254686         2.969847         1.330168
 C        -0.072435         2.629573         0.612277
 H        -0.308143        -0.670436         0.882813
 H        -2.137155         1.803828        -0.496487
 H        -2.585558         0.090740         0.441521
 H        -2.065295         1.370164         2.687359
 H        -1.880941         3.890985         1.101027
 H         1.571936         4.026872         3.169729
 H         0.901425         2.312259         3.474974
 H         1.675965         3.888904         0.862022
 H         1.949243         2.134544         1.284845
 H        -0.089285         2.963367        -0.417297
