19
Iteration:  3750
 O         0.094808         0.031931         0.806503
 C        -0.659822         1.286771         0.829968
 C        -2.027270         1.219875         0.402436
 C        -1.721092         1.769254         1.788213
 C        -1.125088         3.221314         1.547272
 O        -0.580371         3.773436         2.659236
 C         0.733230         3.297642         2.886517
 C         1.316269         2.892447         1.338492
 C         0.000712         2.623920         0.554548
 H         0.760625         0.034399         1.470323
 H        -2.431213         1.797430        -0.379410
 H        -2.587690         0.255218         0.623145
 H        -2.176090         1.179976         2.650137
 H        -1.744020         4.020330         1.095566
 H         1.383213         4.049709         3.224873
 H         0.818950         2.413738         3.464376
 H         1.764961         3.771109         0.857432
 H         2.113638         2.218906         1.488884
 H        -0.089379         3.099785        -0.316895
