19
Iteration:  3967charge 0 multiplicity 1
 O         0.085299         0.009786         0.799119
 C        -0.637489         1.200766         0.838464
 C        -2.051969         1.190869         0.377410
 C        -1.793294         1.857035         1.699963
 C        -1.178272         3.173673         1.583291
 O        -0.529609         3.698899         2.693544
 C         0.828405         3.377734         2.786133
 C         1.299909         2.994258         1.410204
 C        -0.015052         2.643639         0.644132
 H         0.865746         0.025190         1.404762
 H        -2.399100         1.754840        -0.442370
 H        -2.429788         0.111405         0.572295
 H        -2.336029         1.586752         2.666478
 H        -1.794967         3.980999         1.230314
 H         1.200461         4.102559         3.419825
 H         0.934087         2.387604         3.349046
 H         1.729847         3.785959         0.740356
 H         2.077056         2.175792         1.385705
 H         0.081852         2.953795        -0.481814
