19
Iteration:  3253
 O        -0.010181         0.025502         0.854083
 C        -0.598560         1.233435         0.816433
 C        -1.984169         1.198264         0.409961
 C        -1.764224         1.816583         1.712364
 C        -1.116771         3.113215         1.526023
 O        -0.591445         3.728578         2.701676
 C         0.802584         3.328675         2.804362
 C         1.343837         3.003169         1.356412
 C        -0.026173         2.640652         0.649290
 H         0.590448         0.082342         1.584464
 H        -2.304018         1.826126        -0.427911
 H        -2.441189         0.216575         0.413170
 H        -2.463395         1.353605         2.505889
 H        -1.830513         3.783656         0.994951
 H         1.457160         4.169988         3.109631
 H         1.037894         2.602404         3.571675
 H         1.755011         3.950262         0.928706
 H         2.163683         2.281678         1.223407
 H         0.026920         3.116731        -0.289371
