19
Iteration:   476
 O         0.147919         0.136543         1.136776
 C        -0.609555         1.214698         0.845205
 C        -2.084203         1.194923         0.440475
 C        -1.763839         1.868554         1.747081
 C        -1.151692         3.183017         1.466480
 O        -0.543977         3.789005         2.634930
 C         0.772406         3.157658         2.752493
 C         1.292219         2.913616         1.287335
 C        -0.035566         2.655254         0.540370
 H         0.673722        -0.042279         0.327535
 H        -2.459974         1.875486        -0.328270
 H        -2.647203         0.142232         0.443160
 H        -2.102089         1.602873         2.740992
 H        -1.819625         3.994112         1.169446
 H         1.388002         3.668199         3.438081
 H         0.501866         2.118301         3.041716
 H         1.841441         3.885297         0.973362
 H         2.043439         2.099250         1.239678
 H         0.130560         3.061118        -0.530376
