19
Iteration:   162charge 0 multiplicity 1
 O         0.208462         0.259364         1.068139
 C        -0.615784         1.283962         0.895249
 C        -2.089497         1.142491         0.454365
 C        -1.714414         1.897076         1.728020
 C        -1.158806         3.248657         1.395517
 O        -0.526212         3.738649         2.652105
 C         0.734854         3.045461         2.816408
 C         1.227329         2.920105         1.321447
 C         0.007687         2.571406         0.438649
 H        -0.236194        -0.499599         1.489259
 H        -2.403337         1.599172        -0.487462
 H        -2.556790         0.252115         0.607515
 H        -2.133677         1.734093         2.641868
 H        -1.718617         4.077645         0.998998
 H         1.487441         3.698978         3.369680
 H         0.730923         2.111860         3.378314
 H         1.487431         3.955411         1.113750
 H         2.025697         2.250854         1.208268
 H        -0.037343         3.009954        -0.633105
