19
Iteration:  2621
 O         0.180889         0.053367         0.734247
 C        -0.576155         1.252092         0.822882
 C        -2.019012         1.128688         0.501907
 C        -1.702492         1.816203         1.866853
 C        -1.226863         3.229237         1.515840
 O        -0.527506         4.002677         2.573249
 C         0.761870         3.174040         2.804126
 C         1.244526         2.883950         1.446232
 C        -0.033648         2.610480         0.634461
 H        -0.432543        -0.621575         0.957447
 H        -2.533206         1.785635        -0.401062
 H        -2.437777         0.171243         0.529319
 H        -2.016654         1.386468         2.847045
 H        -1.904079         3.879488         0.964067
 H         1.453817         3.781995         3.243823
 H         0.506471         2.336252         3.411488
 H         1.691780         3.807034         1.062854
 H         2.046474         2.082529         1.592356
 H         0.051961         2.832660        -0.434786
