19
Iteration:  4626
 O         0.179465         0.046864         0.841208
 C        -0.572801         1.254795         0.797842
 C        -2.050743         1.212915         0.392863
 C        -1.659972         1.795321         1.739677
 C        -1.194184         3.185058         1.540190
 O        -0.491049         3.860124         2.650604
 C         0.666997         3.169085         2.877662
 C         1.194078         2.908040         1.399195
 C        -0.054883         2.669079         0.540471
 H         0.647701         0.145573         1.702840
 H        -2.292386         1.972037        -0.397022
 H        -2.523916         0.283099         0.386152
 H        -1.980188         1.610084         2.743038
 H        -2.079920         3.801439         1.333915
 H         1.418612         3.937993         3.287616
 H         0.446971         2.236399         3.455505
 H         1.905287         3.749685         1.098118
 H         1.834132         1.878403         1.390371
 H        -0.079363         3.006180        -0.526411
