19
Iteration:  3648charge 0 multiplicity 1
 O         0.117434         0.057412         0.913382
 C        -0.616126         1.273812         0.817526
 C        -2.091424         1.142433         0.377937
 C        -1.682121         1.795979         1.725267
 C        -1.130850         3.246979         1.539657
 O        -0.528965         3.794216         2.696081
 C         0.757919         3.151355         2.755825
 C         1.288651         3.020009         1.405359
 C        -0.054672         2.682281         0.510477
 H         0.233753        -0.060579         1.931738
 H        -2.626460         1.767265        -0.308067
 H        -2.371144         0.084849         0.450122
 H        -2.151255         1.269247         2.591423
 H        -1.800723         4.100421         1.206029
 H         1.454574         3.618025         3.509889
 H         0.682927         2.176051         3.254916
 H         1.614174         4.064615         1.113538
 H         2.071757         2.090074         1.301477
 H         0.073193         2.976963        -0.587313
