19
Iteration:  1699
 O         0.112220        -0.019711         0.855674
 C        -0.598173         1.241577         0.855722
 C        -2.038956         1.134651         0.480087
 C        -1.771705         1.839349         1.768079
 C        -1.183163         3.238979         1.540013
 O        -0.581795         3.846443         2.631707
 C         0.757856         3.271945         2.817457
 C         1.330384         3.013001         1.422703
 C         0.055478         2.592537         0.539587
 H        -0.348867        -0.734103         0.415515
 H        -2.360750         1.746057        -0.401447
 H        -2.507546         0.222952         0.701107
 H        -2.081412         1.486035         2.736930
 H        -1.800289         3.937333         0.949386
 H         1.448814         4.021895         3.336617
 H         0.649944         2.424008         3.427207
 H         1.817489         3.975810         0.917632
 H         2.125565         2.284422         1.384127
 H         0.201803         2.889017        -0.540201
