19
Iteration:  2971
 O         0.161372         0.123806         0.926498
 C        -0.578873         1.206532         0.854877
 C        -2.025861         1.190022         0.464087
 C        -1.721091         1.936249         1.746073
 C        -1.128360         3.186132         1.506199
 O        -0.588354         3.731279         2.644978
 C         0.741569         3.101081         2.771228
 C         1.214868         2.910010         1.345876
 C        -0.064308         2.661233         0.586031
 H         1.126509         0.314976         1.124063
 H        -2.349984         1.812989        -0.478533
 H        -2.764577         0.373798         0.566845
 H        -2.192232         1.758315         2.694573
 H        -1.748634         4.093572         1.042004
 H         1.325606         3.905190         3.242426
 H         0.727967         2.284554         3.531421
 H         1.753250         3.784479         0.884236
 H         1.945096         2.091182         1.229089
 H         0.001416         3.061856        -0.465357
