19
Iteration:   494
 O         0.151911         0.122270         1.097764
 C        -0.639178         1.282058         0.899934
 C        -2.055603         1.212541         0.319080
 C        -1.712233         1.746653         1.785688
 C        -1.199668         3.299115         1.529238
 O        -0.390975         3.893648         2.548782
 C         0.757436         3.042641         2.781687
 C         1.167007         2.919337         1.339729
 C        -0.087459         2.591173         0.605266
 H         0.833768         0.101445         0.409586
 H        -2.360317         1.606955        -0.634434
 H        -2.533668         0.241531         0.520321
 H        -2.161808         1.342770         2.616045
 H        -1.867704         4.036964         1.049031
 H         1.368212         3.868362         3.223635
 H         0.624717         2.178486         3.434433
 H         1.473467         3.846198         1.013584
 H         2.065957         2.261356         1.242974
 H        -0.126808         2.608548        -0.532150
