19
Iteration:   498
 O         0.143960         0.117453         1.087788
 C        -0.600158         1.242221         0.911568
 C        -2.047900         1.211213         0.290874
 C        -1.728230         1.757014         1.768288
 C        -1.208149         3.266325         1.537225
 O        -0.387787         3.945378         2.552192
 C         0.778052         3.066052         2.792796
 C         1.152623         2.866124         1.322166
 C        -0.115908         2.609645         0.633369
 H         0.845373         0.125557         0.405723
 H        -2.360202         1.604506        -0.691526
 H        -2.612277         0.185256         0.562405
 H        -2.115513         1.362317         2.744904
 H        -1.862530         4.048302         1.146823
 H         1.460216         3.752155         3.203669
 H         0.524666         2.163074         3.401969
 H         1.424192         4.000028         1.109661
 H         2.090381         2.315384         1.166551
 H        -0.003215         2.684194        -0.551277
