19
Iteration:  1086charge 0 multiplicity 1
 O         0.278066         0.217499         1.000718
 C        -0.633666         1.313210         0.804561
 C        -2.055631         1.112652         0.516782
 C        -1.652162         1.863042         1.785732
 C        -1.170683         3.364989         1.429261
 O        -0.547004         3.833783         2.654711
 C         0.687252         2.962713         2.766395
 C         1.197776         2.850979         1.333896
 C        -0.011040         2.625492         0.475671
 H        -0.317979        -0.545406         1.255889
 H        -2.499937         1.816814        -0.048790
 H        -2.657898         0.152982         0.700773
 H        -2.008373         1.497590         2.739979
 H        -1.814770         4.100802         1.006102
 H         1.280860         3.615715         3.494434
 H         0.481663         1.908987         3.183365
 H         1.632848         3.794382         0.950927
 H         2.021510         2.159781         1.276751
 H         0.104621         3.034915        -0.589969
