19
Iteration:   293charge 0 multiplicity 1
 O         0.175338         0.047317         1.041579
 C        -0.625957         1.182430         0.796708
 C        -2.129467         1.248650         0.433751
 C        -1.692475         1.811504         1.757005
 C        -1.146224         3.189841         1.552256
 O        -0.477699         3.956643         2.544196
 C         0.687032         3.235714         2.726612
 C         1.302075         2.896968         1.419610
 C        -0.053168         2.587049         0.586121
 H         0.444912        -0.269801         0.210704
 H        -2.368398         1.853454        -0.367568
 H        -2.633673         0.242952         0.586742
 H        -1.896075         1.123242         2.657641
 H        -1.973204         3.894234         1.404807
 H         1.228344         3.925074         3.427088
 H         0.520940         2.311770         3.240550
 H         1.901125         3.627591         0.902416
 H         1.735067         1.939598         1.561192
 H         0.032696         2.935599        -0.452234
