19
Iteration:  2006charge 0 multiplicity 1
 O         0.243641         0.134340         0.979489
 C        -0.670031         1.245722         0.786940
 C        -2.102178         1.158469         0.466758
 C        -1.706515         1.796987         1.790360
 C        -1.137803         3.251580         1.464273
 O        -0.519108         3.871699         2.626976
 C         0.717231         3.149246         2.771416
 C         1.278455         2.819996         1.355735
 C        -0.040592         2.741662         0.571922
 H        -0.096365        -0.672245         0.455578
 H        -2.538173         1.742681        -0.283681
 H        -2.441713         0.094312         0.705946
 H        -2.011649         1.397773         2.700489
 H        -1.951825         3.965496         1.142900
 H         1.432407         3.876503         3.432396
 H         0.366579         2.255630         3.429620
 H         1.960576         3.638343         1.007824
 H         1.835331         1.957116         1.500521
 H         0.048385         3.157999        -0.478208
