19
Iteration:  3501charge 0 multiplicity 1
 O         0.147065         0.090036         0.815461
 C        -0.596681         1.229176         0.788807
 C        -2.093268         1.184175         0.432464
 C        -1.709136         1.784013         1.765562
 C        -1.201276         3.209475         1.577107
 O        -0.495968         3.883759         2.580393
 C         0.702571         3.188657         2.802297
 C         1.288523         2.866504         1.412149
 C        -0.029846         2.695063         0.682705
 H         0.878529         0.340416         1.348618
 H        -2.455555         1.804628        -0.427121
 H        -2.522480         0.158263         0.606106
 H        -2.125903         1.310821         2.689020
 H        -1.958233         3.778539         1.114820
 H         1.389511         3.758156         3.393676
 H         0.465696         2.218549         3.282375
 H         1.710249         3.772540         1.002140
 H         1.987751         1.913236         1.348169
 H         0.133708         2.948922        -0.424276
