19
Iteration:  2915
 O         0.113945        -0.016935         0.808435
 C        -0.541562         1.222614         0.740920
 C        -2.020439         1.219952         0.460978
 C        -1.670150         1.806466         1.823702
 C        -1.184601         3.243394         1.561061
 O        -0.509887         3.892571         2.586986
 C         0.716277         3.180893         2.849287
 C         1.205040         2.944183         1.411559
 C        -0.037501         2.649687         0.553919
 H         0.598198        -0.073792         1.620487
 H        -2.569068         1.868521        -0.138037
 H        -2.343796         0.071967         0.502231
 H        -2.193812         1.398237         2.767866
 H        -1.845446         4.123456         1.106689
 H         1.229927         3.890742         3.441116
 H         0.497911         2.231594         3.431902
 H         1.744345         3.732153         0.926636
 H         1.827915         2.027473         1.479389
 H         0.038525         2.979554        -0.486893
