19
Iteration:  2349charge 0 multiplicity 1
 O         0.139496        -0.024015         0.833224
 C        -0.626166         1.141137         0.836481
 C        -2.042474         1.301242         0.434303
 C        -1.662071         1.780962         1.837381
 C        -1.144948         3.237152         1.535290
 O        -0.603272         3.894882         2.562607
 C         0.776209         3.313963         2.841629
 C         1.247223         2.881404         1.392470
 C        -0.050939         2.573473         0.649614
 H         0.873258         0.341020         0.275781
 H        -2.388797         1.833515        -0.385975
 H        -2.552418         0.362158         0.475580
 H        -1.983033         1.350512         2.827839
 H        -2.075538         3.696814         1.117587
 H         1.364232         4.116390         3.370611
 H         0.750435         2.537330         3.554327
 H         1.812519         3.578736         0.834315
 H         1.906182         1.964026         1.454280
 H        -0.000110         2.996191        -0.377824
