19
Iteration:   299charge 0 multiplicity 1
 O         0.192810         0.081150         1.006936
 C        -0.606172         1.170901         0.861065
 C        -2.120310         1.259978         0.456456
 C        -1.694482         1.759627         1.762056
 C        -1.174544         3.215719         1.571323
 O        -0.486002         3.955324         2.509571
 C         0.637572         3.241698         2.716695
 C         1.339846         2.852514         1.414037
 C        -0.032638         2.612544         0.632475
 H         0.426462        -0.388656         0.160897
 H        -2.421031         1.969118        -0.428837
 H        -2.664879         0.365171         0.517810
 H        -1.927661         1.340737         2.699236
 H        -1.964151         3.888179         1.152963
 H         1.309937         3.737915         3.404651
 H         0.426496         2.268727         3.305289
 H         1.885632         3.688255         0.830239
 H         1.784063         1.788867         1.379216
 H        -0.097498         2.876111        -0.443223
