19
Iteration:  3858charge 0 multiplicity 1
 O         0.195660         0.113784         0.904321
 C        -0.628747         1.208067         0.806622
 C        -2.127067         1.134529         0.414337
 C        -1.796399         1.839497         1.678197
 C        -1.175669         3.311302         1.471922
 O        -0.480025         3.736369         2.682790
 C         0.756425         3.103084         2.824509
 C         1.269759         2.953785         1.367975
 C        -0.084869         2.694064         0.633009
 H         0.951065         0.500869         1.282529
 H        -2.496011         1.565404        -0.402547
 H        -2.554626         0.072999         0.657364
 H        -1.900478         1.701198         2.797371
 H        -1.641178         4.219777         1.157022
 H         1.383418         3.730422         3.385070
 H         0.799339         2.138042         3.436785
 H         1.716911         3.920215         1.050995
 H         2.006204         2.112233         1.230612
 H        -0.028718         2.965662        -0.545515
