19
Iteration:  1719charge 0 multiplicity 1
 O         0.162231         0.041061         0.935893
 C        -0.592458         1.204338         0.858781
 C        -2.035139         1.301403         0.397235
 C        -1.646195         1.737222         1.807677
 C        -1.142755         3.197236         1.486035
 O        -0.544116         3.812730         2.591752
 C         0.737733         3.344619         2.795634
 C         1.211357         2.902908         1.391351
 C        -0.051307         2.588740         0.661295
 H        -0.164917        -0.626920         0.359225
 H        -2.423695         2.085184        -0.297333
 H        -2.569694         0.366987         0.257922
 H        -2.192790         1.527798         2.714899
 H        -2.026150         3.811733         1.113327
 H         1.388378         4.150339         3.232434
 H         0.806921         2.369605         3.408360
 H         1.849485         3.675302         0.777529
 H         1.914410         2.042305         1.374266
 H         0.010756         3.083795        -0.347344
