19
Iteration:   833charge 0 multiplicity 1
 O         0.203926         0.118809         1.034240
 C        -0.667364         1.254927         0.834032
 C        -2.053739         1.124580         0.405800
 C        -1.709388         1.822548         1.710446
 C        -1.112870         3.280290         1.503083
 O        -0.448334         3.899747         2.648449
 C         0.806368         3.113009         2.781210
 C         1.175693         2.892984         1.379601
 C        -0.124769         2.622857         0.493494
 H        -0.281794        -0.669334         0.912400
 H        -2.448938         1.748870        -0.391969
 H        -2.496857         0.231808         0.551862
 H        -2.305807         1.587793         2.752642
 H        -1.922894         3.965307         1.252121
 H         1.545108         3.750173         3.344284
 H         0.626501         2.295358         3.439438
 H         1.583427         3.799244         1.049890
 H         2.020287         2.174831         1.249535
 H         0.085079         2.956073        -0.568247
