19
Iteration:  1750charge 0 multiplicity 1
 O         0.180494         0.092757         1.009082
 C        -0.648281         1.231738         0.754495
 C        -2.136439         1.178656         0.337359
 C        -1.717661         1.712050         1.689332
 C        -1.199634         3.245847         1.579230
 O        -0.478688         3.885963         2.644877
 C         0.806538         3.365735         2.808281
 C         1.260672         2.841626         1.388260
 C        -0.053958         2.595973         0.632834
 H         0.594017        -0.373212         0.213655
 H        -2.533102         1.833643        -0.392500
 H        -2.336326         0.124995         0.537767
 H        -2.114909         1.334888         2.624936
 H        -2.059777         3.957922         1.314434
 H         1.478127         4.056514         3.320118
 H         0.738285         2.462045         3.547944
 H         1.783287         3.440602         0.721199
 H         1.706624         1.814612         1.536523
 H         0.033739         3.100363        -0.354706
