19
Iteration:  4261charge 0 multiplicity 1
 O         0.123947         0.113236         0.830540
 C        -0.573274         1.266704         0.799808
 C        -2.065057         1.144889         0.468366
 C        -1.661713         1.807165         1.742892
 C        -1.150826         3.247845         1.490892
 O        -0.551526         3.768625         2.660363
 C         0.698534         3.175771         2.850860
 C         1.302678         2.885122         1.375053
 C        -0.047590         2.724078         0.587380
 H         0.793506         0.067431         1.564419
 H        -2.650769         1.610173        -0.433722
 H        -2.574407         0.184141         0.519671
 H        -2.255786         1.565501         2.767263
 H        -1.966693         3.823715         1.070194
 H         1.328499         3.865349         3.314266
 H         0.582334         2.248635         3.496186
 H         1.611015         3.776632         1.073984
 H         2.090333         2.119141         1.268123
 H         0.103632         3.076435        -0.477749
