19
Iteration:  4907charge 0 multiplicity 1
 O         0.058691         0.057364         0.881665
 C        -0.610177         1.232939         0.790261
 C        -2.010093         1.201735         0.272638
 C        -1.697521         1.683858         1.758404
 C        -1.199563         3.232119         1.553604
 O        -0.533272         3.834781         2.724227
 C         0.790852         3.276889         2.851579
 C         1.273345         2.962526         1.386564
 C        -0.037904         2.660493         0.580568
 H         0.442224         0.049473         1.751066
 H        -2.395468         1.974773        -0.448678
 H        -2.497115         0.115563         0.101484
 H        -2.273893         1.126410         2.621870
 H        -1.895208         4.013560         1.127107
 H         1.513114         3.963140         3.361809
 H         0.846546         2.262277         3.319287
 H         1.964007         3.724044         1.060601
 H         1.902031         2.068067         1.324581
 H         0.127772         2.888730        -0.432386
