19
Iteration:  2854charge 0 multiplicity 1
 O         0.039672        -0.079912         0.803706
 C        -0.640484         1.198277         0.834838
 C        -2.058328         1.121663         0.321080
 C        -1.706603         1.755256         1.718939
 C        -1.143770         3.282648         1.588815
 O        -0.522983         3.885511         2.670929
 C         0.829910         3.345165         2.888537
 C         1.313787         2.958050         1.397296
 C        -0.073529         2.641818         0.635867
 H         0.915057        -0.076995         1.254015
 H        -2.522250         1.635581        -0.666380
 H        -2.491332         0.130114         0.539127
 H        -2.194082         1.353035         2.592431
 H        -1.799797         3.999001         1.108132
 H         1.299380         4.328435         3.211141
 H         0.885666         2.403317         3.509982
 H         1.685458         3.983711         0.994460
 H         2.091797         2.162406         1.472868
 H        -0.140843         3.017756        -0.430475
