19
Iteration:  2226
 O         0.183011         0.074510         1.008186
 C        -0.602698         1.169017         0.866277
 C        -2.007515         1.122693         0.335087
 C        -1.706240         1.847584         1.751279
 C        -1.164730         3.255809         1.580753
 O        -0.446591         3.872258         2.645288
 C         0.721535         3.153124         2.733838
 C         1.221180         2.996556         1.360639
 C        -0.128691         2.689174         0.616258
 H        -0.149303        -0.771735         0.574671
 H        -2.297447         1.794600        -0.452582
 H        -2.648800         0.243607         0.281293
 H        -2.143490         1.328269         2.663246
 H        -1.967354         3.923774         1.124697
 H         1.481383         3.761531         3.402126
 H         0.519413         2.091587         3.074020
 H         1.596854         3.959129         1.002618
 H         2.020935         2.224098         1.191139
 H         0.070912         2.961950        -0.431688
