19
Iteration:  3120
 O         0.124370         0.078635         0.851546
 C        -0.561895         1.276428         0.789105
 C        -2.046397         1.244619         0.505184
 C        -1.717420         1.794672         1.821079
 C        -1.164795         3.193787         1.507077
 O        -0.478685         3.842498         2.582085
 C         0.674870         3.163588         2.783099
 C         1.242521         2.936675         1.441080
 C        -0.048054         2.632285         0.561822
 H         0.916605         0.074139         1.407036
 H        -2.446731         1.827011        -0.279268
 H        -2.507322         0.232330         0.414663
 H        -2.047660         1.115639         2.575775
 H        -1.787595         3.865915         1.047823
 H         1.178079         3.822074         3.475842
 H         0.427841         2.185464         3.354016
 H         1.802596         3.750617         1.079766
 H         1.848415         2.019043         1.333125
 H        -0.008859         2.934996        -0.447562
