19
Iteration:  1268
 O         0.232988         0.160862         1.079856
 C        -0.631057         1.301869         0.796688
 C        -2.066945         1.185451         0.493078
 C        -1.667066         1.826956         1.758851
 C        -1.160502         3.256824         1.449776
 O        -0.496919         3.785160         2.605571
 C         0.704493         3.035826         2.760622
 C         1.201891         2.960827         1.348598
 C        -0.057810         2.684859         0.529939
 H         0.070808        -0.594051         0.518610
 H        -2.411059         1.720777        -0.394867
 H        -2.676387         0.198365         0.782338
 H        -1.992770         1.527518         2.791985
 H        -1.825048         4.063104         1.016890
 H         1.322568         3.456520         3.538130
 H         0.511231         2.043941         3.281516
 H         1.718330         3.797814         1.008004
 H         1.936137         2.086028         1.250517
 H        -0.047911         3.006314        -0.600754
