19
Iteration:  2960charge 0 multiplicity 1
 O         0.252293         0.090899         0.931150
 C        -0.655718         1.250244         0.788465
 C        -2.103057         1.240244         0.470856
 C        -1.775102         1.870864         1.744997
 C        -1.136364         3.250710         1.473370
 O        -0.518400         3.753641         2.670601
 C         0.713289         3.194548         2.804875
 C         1.235743         2.830949         1.364712
 C        -0.051369         2.637411         0.561841
 H         1.067634         0.548679         1.133559
 H        -2.452186         1.692986        -0.556431
 H        -2.308233         0.177589         0.715204
 H        -2.149939         1.587730         2.725416
 H        -1.961930         3.997197         1.086288
 H         1.370619         3.850080         3.405100
 H         0.608667         2.164829         3.258730
 H         1.797050         3.736427         1.028456
 H         1.913554         1.964403         1.391665
 H        -0.105838         2.930885        -0.520187
