19
Iteration:  2614
 O         0.206038         0.068188         0.743488
 C        -0.629492         1.221984         0.835130
 C        -2.017889         1.101177         0.502877
 C        -1.706288         1.839583         1.880629
 C        -1.220492         3.312980         1.474314
 O        -0.498376         3.933824         2.553840
 C         0.761549         3.185104         2.802938
 C         1.250256         2.878198         1.436071
 C        -0.038472         2.627483         0.657997
 H        -0.364842        -0.713248         0.675326
 H        -2.505109         1.651596        -0.218987
 H        -2.504785         0.105356         0.641388
 H        -2.125094         1.298260         2.670929
 H        -2.063238         3.969654         0.999654
 H         1.363816         3.923672         3.488829
 H         0.499777         2.427045         3.553777
 H         1.776548         3.852004         1.171333
 H         1.911202         2.008664         1.378227
 H         0.160905         2.920605        -0.398578
