19
Iteration:   999
 O         0.004384         0.026991         1.119835
 C        -0.614219         1.245931         0.855774
 C        -2.084390         1.227849         0.288092
 C        -1.733959         1.777571         1.711777
 C        -1.176221         3.192149         1.553910
 O        -0.532265         3.703292         2.713866
 C         0.890483         3.385607         2.737190
 C         1.325084         2.984083         1.307373
 C        -0.021590         2.611321         0.601316
 H         0.238689        -0.331451         0.262058
 H        -2.432178         1.827663        -0.443592
 H        -2.460350         0.122852         0.186773
 H        -1.980098         1.209605         2.555565
 H        -1.865172         3.977986         1.200640
 H         1.345088         4.372726         2.974864
 H         1.244976         2.575401         3.408962
 H         1.752572         3.772999         0.698367
 H         1.931181         2.115265         1.466643
 H        -0.103233         3.039436        -0.492996
