19
Iteration:  4079charge 0 multiplicity 1
 O         0.128051         0.071907         0.811582
 C        -0.667396         1.261905         0.819558
 C        -2.083394         1.166058         0.443922
 C        -1.720146         1.812748         1.790211
 C        -1.140200         3.235510         1.524210
 O        -0.517572         3.795146         2.662473
 C         0.701067         3.154081         2.828161
 C         1.282619         3.018022         1.411512
 C         0.008806         2.629708         0.527210
 H         0.876297         0.254505         1.375883
 H        -2.553196         1.648952        -0.383105
 H        -2.338317         0.195702         0.562989
 H        -2.207389         1.351520         2.757123
 H        -1.865032         3.853320         0.984928
 H         1.273529         3.784407         3.537313
 H         0.649320         2.133716         3.279340
 H         2.003732         3.895796         1.080186
 H         1.920807         2.125837         1.480823
 H         0.144352         3.013188        -0.597328
