19
Iteration:  4195charge 0 multiplicity 1
 O         0.084064         0.028866         0.915248
 C        -0.587564         1.289215         0.828093
 C        -2.008850         1.192006         0.395045
 C        -1.726112         1.754526         1.716128
 C        -1.169378         3.194727         1.522261
 O        -0.530032         3.787627         2.741781
 C         0.745972         3.173117         2.795186
 C         1.230930         2.991796         1.307949
 C        -0.011834         2.688797         0.538779
 H         0.787510         0.129004         1.547650
 H        -2.383563         1.989397        -0.414246
 H        -2.401204         0.208035         0.349823
 H        -2.088694         1.495182         2.787703
 H        -1.761830         4.062535         1.231106
 H         1.303471         3.800551         3.473459
 H         0.697771         2.127321         3.328958
 H         1.604636         3.843213         0.887501
 H         2.015847         2.251561         1.351916
 H        -0.067827         3.079375        -0.494251
