19
Iteration:  2907charge 0 multiplicity 1
 O         0.114640        -0.054177         0.778504
 C        -0.561541         1.224692         0.786953
 C        -2.007899         1.216560         0.515180
 C        -1.658145         1.780159         1.786991
 C        -1.195765         3.274317         1.540335
 O        -0.578220         3.902916         2.624956
 C         0.707309         3.201527         2.806417
 C         1.218268         2.949349         1.398123
 C         0.014622         2.636278         0.566613
 H         0.563467        -0.193154         1.620576
 H        -2.404931         2.073988        -0.202368
 H        -2.685112         0.389572         0.400013
 H        -2.015170         1.630358         2.776170
 H        -2.019512         3.844489         1.184388
 H         1.361369         3.831743         3.430786
 H         0.720741         2.215114         3.344474
 H         1.890369         3.807957         1.165686
 H         1.902774         2.114453         1.363166
 H         0.151123         2.775322        -0.549406
