19
Iteration:  3238charge 0 multiplicity 1
 O         0.075330         0.001550         0.874708
 C        -0.646093         1.217811         0.831322
 C        -2.032150         1.239674         0.277730
 C        -1.826951         1.745649         1.770069
 C        -1.186314         3.190641         1.575956
 O        -0.543352         3.737698         2.720705
 C         0.873424         3.420222         2.776579
 C         1.246608         2.973819         1.389119
 C         0.033044         2.582405         0.634545
 H         0.995568         0.091967         1.282621
 H        -2.331747         1.936510        -0.541624
 H        -2.431135         0.233734         0.168541
 H        -2.248882         1.492048         2.685143
 H        -1.791347         4.140824         1.141373
 H         1.309046         4.249865         3.258558
 H         0.948145         2.520806         3.363427
 H         1.813482         3.654448         0.807855
 H         1.964434         2.123416         1.508605
 H        -0.033198         2.743500        -0.456645
