19
Iteration:  1508
 O         0.249950         0.096637         0.957816
 C        -0.621903         1.201816         0.825620
 C        -2.084268         1.126748         0.401299
 C        -1.804260         1.901958         1.801860
 C        -1.170217         3.254675         1.507230
 O        -0.533600         3.749296         2.659070
 C         0.802149         3.243983         2.793258
 C         1.283677         2.954037         1.358785
 C        -0.100153         2.643186         0.564089
 H        -0.345176        -0.694741         0.959902
 H        -2.303803         1.801070        -0.434107
 H        -2.472082         0.195786         0.255845
 H        -2.215357         1.515392         2.756227
 H        -1.748099         4.108743         0.970603
 H         1.372630         3.995901         3.213693
 H         0.807904         2.389851         3.389956
 H         1.951706         3.683316         0.921350
 H         2.056169         2.058971         1.375044
 H         0.029250         2.961523        -0.493634
