19
Iteration:  4663charge 0 multiplicity 1
 O         0.135912         0.063731         0.847059
 C        -0.584310         1.253837         0.799189
 C        -2.132505         1.157554         0.386292
 C        -1.759050         1.790212         1.690504
 C        -1.192565         3.200615         1.547038
 O        -0.544359         3.780097         2.666297
 C         0.751032         3.213807         2.840256
 C         1.316656         2.981339         1.406720
 C         0.057454         2.654416         0.570073
 H         0.426039        -0.109041         1.821449
 H        -2.566746         1.765353        -0.431975
 H        -2.610079         0.016930         0.338188
 H        -2.105741         1.677615         2.736158
 H        -1.886814         4.003577         1.160331
 H         1.244061         3.996375         3.552405
 H         0.941670         2.335927         3.458534
 H         1.860552         3.878907         1.028711
 H         1.982488         2.176107         1.376345
 H         0.021138         3.196680        -0.338095
