19
Iteration:  3717
 O         0.186547         0.033848         0.894652
 C        -0.610873         1.235438         0.790959
 C        -2.060321         1.225865         0.363434
 C        -1.802235         1.777943         1.769078
 C        -1.236907         3.238418         1.581539
 O        -0.458268         3.855999         2.639647
 C         0.772742         3.191143         2.846668
 C         1.244438         2.857435         1.375608
 C        -0.034123         2.669987         0.540965
 H         1.096620         0.368472         0.906273
 H        -2.608481         1.667893        -0.449529
 H        -2.510140         0.233593         0.573272
 H        -2.400020         1.290723         2.558514
 H        -1.933321         4.016828         1.222801
 H         1.354883         3.912279         3.414570
 H         0.678731         2.320919         3.488073
 H         1.733825         3.785841         1.101284
 H         1.986834         2.177392         1.574155
 H        -0.070217         3.095951        -0.355561
