19
Iteration:  4852charge 0 multiplicity 1
 O         0.018435         0.018066         0.797600
 C        -0.578298         1.244642         0.930424
 C        -2.026409         1.206821         0.345780
 C        -1.745314         1.837985         1.671391
 C        -1.083913         3.193831         1.529551
 O        -0.587402         3.744910         2.689735
 C         0.716661         3.249361         2.821607
 C         1.307805         3.021847         1.402994
 C        -0.000888         2.619350         0.640252
 H         0.851004         0.085054         1.363108
 H        -2.228306         1.821646        -0.517205
 H        -2.348520         0.038649         0.627583
 H        -2.140664         1.466213         2.768248
 H        -1.744626         3.963349         1.030839
 H         1.377152         3.997118         3.272776
 H         0.812626         2.261947         3.369732
 H         1.699370         3.975346         1.116964
 H         2.122279         2.303924         1.279691
 H        -0.129775         2.854126        -0.411201
