19
Iteration:   799
 O         0.119510         0.079864         1.115767
 C        -0.644648         1.189632         0.893104
 C        -2.067322         1.267494         0.323988
 C        -1.797720         1.800597         1.692083
 C        -1.159115         3.167177         1.554849
 O        -0.549352         3.762239         2.726825
 C         0.892802         3.303398         2.656802
 C         1.351707         2.997234         1.297336
 C        -0.023922         2.617412         0.595272
 H        -0.418108        -0.649928         0.782137
 H        -2.475775         1.978865        -0.356232
 H        -2.465389         0.282351         0.226569
 H        -2.498982         1.355057         2.568915
 H        -1.913076         3.809172         1.096159
 H         1.536450         4.067794         3.161589
 H         0.894104         2.334398         3.100052
 H         1.741908         3.759468         0.701224
 H         2.070109         2.119354         1.435363
 H         0.042074         2.822940        -0.539142
