19
Iteration:  3154
 O         0.159144         0.010518         0.744872
 C        -0.578651         1.197302         0.812788
 C        -2.113466         1.192930         0.516550
 C        -1.642507         1.793406         1.775183
 C        -1.147494         3.304924         1.470374
 O        -0.504558         3.939447         2.642985
 C         0.613431         3.175847         2.866587
 C         1.227602         2.978294         1.436026
 C        -0.010661         2.575046         0.552608
 H         0.515655        -0.263613         1.568692
 H        -2.400004         1.703677        -0.406170
 H        -2.530024         0.285537         0.682609
 H        -1.885830         1.278562         2.679787
 H        -1.732916         4.022085         1.090743
 H         1.410297         3.642175         3.450310
 H         0.547490         2.114084         3.206633
 H         1.702760         3.902267         1.156002
 H         1.970172         2.177243         1.487878
 H         0.000836         2.797181        -0.486919
