19
Iteration:   849
 O         0.276785         0.178609         0.960584
 C        -0.653185         1.211531         0.841628
 C        -2.106360         1.179928         0.520700
 C        -1.746573         1.935562         1.788664
 C        -1.195522         3.283258         1.491301
 O        -0.494780         3.861725         2.594282
 C         0.672002         3.086281         2.763336
 C         1.294405         2.873988         1.330391
 C         0.005856         2.603991         0.608176
 H        -0.195940        -0.598129         0.730333
 H        -2.591045         1.571742        -0.400352
 H        -2.579000         0.090073         0.721577
 H        -2.073828         1.539414         2.654964
 H        -1.784830         4.008678         0.848169
 H         1.336043         3.509922         3.501742
 H         0.455017         1.985785         3.144192
 H         1.905813         3.734279         0.807061
 H         2.007603         2.049853         1.218317
 H         0.021111         2.847990        -0.423600
