19
Iteration:   342
 O         0.216453         0.035061         0.926711
 C        -0.623989         1.222122         0.786215
 C        -2.145459         1.062421         0.520443
 C        -1.664924         1.903999         1.755157
 C        -1.150336         3.280742         1.429094
 O        -0.538453         3.918337         2.613514
 C         0.711561         3.220352         2.816517
 C         1.303664         2.851215         1.373912
 C         0.014739         2.638014         0.607128
 H        -0.375707        -0.559527         0.345062
 H        -2.711288         1.635101        -0.309043
 H        -2.562287         0.182402         0.898518
 H        -2.129253         1.640300         2.663657
 H        -1.753317         4.089669         1.016071
 H         1.223619         3.888114         3.515646
 H         0.496241         2.305491         3.452114
 H         1.747796         3.798959         0.976649
 H         1.973121         1.957303         1.552928
 H         0.161950         3.130220        -0.412690
