19
Iteration:  2782
 O         0.194539         0.074611         1.002037
 C        -0.631983         1.247736         0.807943
 C        -2.041506         1.120730         0.378915
 C        -1.748403         1.882266         1.690506
 C        -1.204449         3.333196         1.580476
 O        -0.526480         3.826405         2.713833
 C         0.747481         3.065636         2.789075
 C         1.282804         2.947269         1.266080
 C        -0.025059         2.670548         0.508824
 H         0.269850        -0.214173         1.903312
 H        -2.621938         1.618274        -0.340014
 H        -2.224599         0.169420         0.515982
 H        -2.112996         1.292965         2.502522
 H        -1.872845         4.202053         1.341864
 H         1.486982         3.640814         3.312083
 H         0.509073         2.110617         3.206705
 H         1.543527         3.935806         1.103625
 H         2.080676         2.232571         1.091066
 H        -0.038172         2.856408        -0.548944
