19
Iteration:   104charge 0 multiplicity 1
 O         0.198607         0.127002         0.971021
 C        -0.640033         1.241378         0.881726
 C        -2.053797         1.156681         0.376873
 C        -1.641740         1.785085         1.809146
 C        -1.098006         3.302475         1.472237
 O        -0.488854         3.903070         2.534419
 C         0.671639         3.237837         2.879269
 C         1.146376         2.803785         1.373100
 C        -0.051934         2.572950         0.622073
 H        -0.235712        -0.559846         0.399917
 H        -2.429075         1.853237        -0.385591
 H        -2.397982         0.038136         0.437683
 H        -1.867088         1.401600         2.880563
 H        -1.726533         4.059424         0.884209
 H         1.302989         3.973876         3.345041
 H         0.544545         2.304876         3.496436
 H         1.817215         3.684912         0.957928
 H         1.950554         1.993560         1.180398
 H        -0.048495         3.038676        -0.446459
