19
Iteration:  3098charge 0 multiplicity 1
 O         0.104357         0.059543         0.907458
 C        -0.650428         1.213213         0.754854
 C        -2.079913         1.146070         0.349484
 C        -1.654993         1.855609         1.752608
 C        -1.206573         3.231971         1.503403
 O        -0.556528         3.844936         2.746643
 C         0.803508         3.245043         2.823054
 C         1.292618         2.862129         1.360716
 C        -0.039682         2.638859         0.614208
 H         0.990838         0.418250         1.153003
 H        -2.459507         1.541664        -0.544678
 H        -2.434593         0.030281         0.366703
 H        -2.251978         1.748984         2.681746
 H        -1.849531         3.944928         1.150539
 H         1.456342         4.015066         3.226968
 H         0.785402         2.299260         3.507442
 H         1.786586         3.684987         0.944986
 H         2.005781         1.993884         1.327174
 H        -0.121959         3.000061        -0.371844
