19
Iteration:  1885
 O         0.189226         0.223249         1.039351
 C        -0.702974         1.196102         0.834691
 C        -2.147799         1.144112         0.357161
 C        -1.783305         1.874551         1.671345
 C        -1.074315         3.210869         1.454638
 O        -0.557008         3.683658         2.747136
 C         0.865874         3.311132         2.811873
 C         1.280245         2.880161         1.348465
 C        -0.034447         2.580749         0.582587
 H         0.130317        -0.369834         0.297595
 H        -2.427075         1.710080        -0.493638
 H        -2.455024         0.129971         0.455190
 H        -2.078727         1.490197         2.706501
 H        -1.724583         4.038490         1.095082
 H         1.312601         4.217165         3.403672
 H         1.062984         2.525494         3.590004
 H         1.638913         3.659661         0.650170
 H         1.933169         2.097586         1.226934
 H        -0.094787         3.083027        -0.428263
