19
Iteration:  2100
 O         0.087305         0.058624         1.043059
 C        -0.613519         1.194132         0.796928
 C        -2.149831         1.242549         0.393741
 C        -1.662312         1.747249         1.729462
 C        -1.111124         3.180798         1.464256
 O        -0.563577         3.766731         2.662778
 C         0.796495         3.308148         2.853896
 C         1.312043         3.063765         1.332348
 C        -0.000226         2.586214         0.592505
 H         0.168913        -0.357452         0.178653
 H        -2.569938         1.921322        -0.330221
 H        -2.695701         0.242927         0.610277
 H        -1.966432         1.360226         2.691575
 H        -1.852003         3.904865         1.155105
 H         1.426401         3.942616         3.384606
 H         0.868783         2.179012         3.315983
 H         1.598503         4.078185         0.931247
 H         2.067684         2.284491         1.087656
 H        -0.031145         2.828535        -0.461362
