19
Iteration:  1752charge 0 multiplicity 1
 O         0.173808         0.089206         1.006574
 C        -0.646374         1.231080         0.756199
 C        -2.132764         1.155167         0.347988
 C        -1.710970         1.718333         1.690340
 C        -1.199150         3.237117         1.571015
 O        -0.470643         3.873184         2.641993
 C         0.808716         3.358519         2.799471
 C         1.251923         2.833613         1.402514
 C        -0.057951         2.629077         0.644091
 H         0.605083        -0.309451         0.242190
 H        -2.565067         1.817219        -0.382405
 H        -2.350160         0.164055         0.468325
 H        -2.141986         1.383689         2.596255
 H        -1.989051         4.016167         1.260021
 H         1.502295         4.082941         3.329505
 H         0.689732         2.493827         3.536311
 H         1.809822         3.502132         0.673512
 H         1.680258         1.859816         1.557535
 H         0.001334         3.105087        -0.386400
