19
Iteration:  4385
 O         0.160531         0.086035         0.873333
 C        -0.608727         1.223818         0.782563
 C        -2.098190         1.186085         0.361436
 C        -1.686576         1.787304         1.686830
 C        -1.156083         3.188984         1.545985
 O        -0.561504         3.827558         2.716471
 C         0.774062         3.220130         2.829943
 C         1.286641         2.921481         1.442016
 C        -0.066665         2.668196         0.537560
 H         0.491766         0.122554         1.775025
 H        -2.517268         1.798724        -0.517373
 H        -2.583418         0.104347         0.551084
 H        -2.013090         1.328690         2.618540
 H        -1.866279         3.891904         1.090561
 H         1.451891         3.855162         3.509405
 H         0.760827         2.311575         3.341337
 H         1.673873         3.815859         1.017267
 H         2.015490         2.217853         1.212789
 H        -0.079880         3.049052        -0.469698
