19
Iteration:  1912charge 0 multiplicity 1
 O         0.089896         0.013849         1.088350
 C        -0.586175         1.231183         0.806198
 C        -2.034801         1.211738         0.349772
 C        -1.761496         1.799773         1.684368
 C        -1.235286         3.207402         1.576967
 O        -0.506089         3.787107         2.720320
 C         0.859003         3.291079         2.711668
 C         1.255135         2.917775         1.360686
 C        -0.053039         2.728319         0.577597
 H         0.355852        -0.316105         0.243959
 H        -2.312178         1.769138        -0.615994
 H        -2.337923         0.134880         0.423569
 H        -2.114396         1.312484         2.548911
 H        -1.999260         3.932929         1.320059
 H         1.417929         4.049246         3.156025
 H         0.982801         2.389929         3.332643
 H         1.813717         3.644778         0.782596
 H         1.823819         1.897799         1.273968
 H        -0.041497         3.189365        -0.391998
