19
Iteration:  2370
 O         0.036747         0.007119         0.824324
 C        -0.567476         1.241772         0.784060
 C        -2.082034         1.134867         0.530012
 C        -1.676620         1.753549         1.810837
 C        -1.130481         3.224419         1.515096
 O        -0.519958         3.924025         2.587514
 C         0.688007         3.226884         2.796691
 C         1.249655         2.967428         1.453520
 C         0.034150         2.663994         0.575078
 H         1.010454         0.039514         0.615213
 H        -2.512020         1.719417        -0.191270
 H        -2.554385         0.170818         0.524893
 H        -2.024254         1.331029         2.798709
 H        -1.910268         3.840199         0.962564
 H         1.338140         3.814842         3.413782
 H         0.565338         2.327255         3.499657
 H         1.735194         3.777257         1.005653
 H         2.107090         2.254737         1.492152
 H         0.041090         2.740491        -0.491608
