19
Iteration:  3399charge 0 multiplicity 1
 O         0.084583        -0.063431         0.888288
 C        -0.553127         1.152963         0.842675
 C        -2.001849         1.259422         0.344444
 C        -1.722790         1.789750         1.778278
 C        -1.211589         3.216994         1.504654
 O        -0.487232         3.842640         2.743235
 C         0.754102         3.216327         2.803209
 C         1.232578         3.034016         1.346618
 C        -0.037106         2.666103         0.561103
 H         0.412526        -0.169204         1.846943
 H        -2.299459         2.010454        -0.457359
 H        -2.604197         0.439827         0.093275
 H        -2.195632         1.421473         2.655887
 H        -2.013787         3.807917         1.105338
 H         1.390814         3.846436         3.535803
 H         0.855785         2.189311         3.089479
 H         1.734233         3.991556         0.944189
 H         2.054383         2.324134         1.164590
 H        -0.161913         3.103726        -0.447657
