19
Iteration:   523charge 0 multiplicity 1
 O         0.162186         0.037705         1.085735
 C        -0.609705         1.193506         0.803088
 C        -2.119326         1.191634         0.396148
 C        -1.727855         1.787435         1.775507
 C        -1.146021         3.276380         1.546490
 O        -0.474400         3.885553         2.630615
 C         0.729845         3.180014         2.761311
 C         1.285033         2.952326         1.300335
 C        -0.062877         2.642849         0.569867
 H         0.682065        -0.132783         0.325799
 H        -2.434951         1.766807        -0.530077
 H        -2.593783         0.287483         0.455122
 H        -2.378281         1.396098         2.692654
 H        -1.772694         4.056806         1.082779
 H         1.316315         3.872906         3.431506
 H         0.604792         2.149035         3.147419
 H         2.008101         3.690911         0.830592
 H         1.825200         2.051710         1.541333
 H        -0.195347         2.867933        -0.456667
