19
Iteration:  4525
 O         0.150175         0.043936         0.884628
 C        -0.599130         1.275044         0.839590
 C        -2.054726         1.258123         0.292998
 C        -1.729967         1.711625         1.687044
 C        -1.212060         3.136724         1.576899
 O        -0.465554         3.828779         2.634566
 C         0.758895         3.240170         2.780666
 C         1.222975         2.964894         1.418509
 C        -0.052987         2.664860         0.679819
 H         0.408216        -0.163286         1.762081
 H        -2.381020         1.889330        -0.428320
 H        -2.439564         0.231165         0.408943
 H        -2.080430         1.290508         2.697801
 H        -1.885767         3.837328         1.133273
 H         1.251829         3.956333         3.373778
 H         0.797422         2.362476         3.509395
 H         1.661668         3.870677         1.024797
 H         1.988366         2.090637         1.029761
 H        -0.017289         3.118773        -0.324564
