19
Iteration:   530
 O         0.135749         0.060797         1.069107
 C        -0.602748         1.214451         0.870510
 C        -2.122289         1.246341         0.402960
 C        -1.703911         1.790374         1.746060
 C        -1.166308         3.253850         1.501276
 O        -0.550067         3.811296         2.633821
 C         0.749235         3.235868         2.733562
 C         1.307932         2.915828         1.307212
 C        -0.036351         2.642976         0.587960
 H         0.553654        -0.292760         0.285780
 H        -2.572572         1.729549        -0.489024
 H        -2.600195         0.198851         0.689049
 H        -2.009331         1.441791         2.748462
 H        -1.825578         4.041388         1.112607
 H         1.424650         3.783790         3.333544
 H         0.707341         2.283692         3.319000
 H         1.970802         3.783417         0.956248
 H         1.941895         1.989447         1.369110
 H         0.180323         2.959725        -0.553070
