19
Iteration:   665charge 0 multiplicity 1
 O         0.178735         0.139447         0.951336
 C        -0.642635         1.295265         0.823673
 C        -2.045930         1.059306         0.525212
 C        -1.759461         1.931871         1.818457
 C        -1.159837         3.261380         1.400771
 O        -0.473298         3.896793         2.554120
 C         0.716952         3.060396         2.866874
 C         1.264989         2.828065         1.414277
 C        -0.049008         2.654135         0.519806
 H        -0.193399        -0.429726         0.296560
 H        -2.656969         1.414047        -0.353789
 H        -2.241913         0.026805         0.824065
 H        -2.033802         1.692238         2.774614
 H        -1.784431         4.052969         1.037051
 H         1.344248         3.852347         3.386875
 H         0.667893         2.139782         3.482686
 H         1.607808         3.785952         0.928068
 H         2.142651         2.176963         1.464164
 H         0.215436         3.095626        -0.549977
