19
Iteration:  4782charge 0 multiplicity 1
 O         0.216581         0.159129         0.845857
 C        -0.591472         1.271409         0.884011
 C        -2.053844         1.202598         0.400341
 C        -1.786792         1.820537         1.772234
 C        -1.192271         3.260185         1.485003
 O        -0.508173         3.795503         2.650484
 C         0.651767         3.085794         2.851055
 C         1.272881         2.885823         1.355958
 C        -0.024002         2.682790         0.541917
 H         0.436016        -0.237141         1.692046
 H        -2.459051         1.722315        -0.469672
 H        -2.272024         0.178230         0.503102
 H        -2.110037         1.288609         2.652040
 H        -1.806953         4.005980         0.985855
 H         1.409500         3.759600         3.322184
 H         0.583591         2.168339         3.490708
 H         1.922646         3.813595         1.156784
 H         1.863499         1.965630         1.508559
 H         0.034680         3.022575        -0.470600
