19
Iteration:  2486charge 0 multiplicity 1
 O         0.144144         0.109621         1.075140
 C        -0.664042         1.298685         0.898531
 C        -2.027293         1.170324         0.319321
 C        -1.796766         1.850940         1.731060
 C        -1.115104         3.196890         1.530108
 O        -0.547777         3.611184         2.738807
 C         0.856587         3.233613         2.716670
 C         1.274365         3.074948         1.238622
 C        -0.067354         2.645730         0.527829
 H        -0.450684        -0.644344         1.188621
 H        -2.324771         1.593962        -0.675314
 H        -2.685663         0.242914         0.733076
 H        -2.015320         1.597297         2.735477
 H        -1.769098         3.973467         1.197953
 H         1.405445         4.044660         3.252353
 H         1.046369         2.385445         3.225635
 H         1.799056         3.966647         0.819602
 H         2.110040         2.366259         1.324953
 H         0.070920         2.751113        -0.559855
