19
Iteration:  4520
 O         0.187952         0.025140         0.885798
 C        -0.652853         1.264999         0.841518
 C        -2.016751         1.284940         0.288740
 C        -1.742791         1.705093         1.739396
 C        -1.169983         3.144623         1.560182
 O        -0.467070         3.827635         2.660757
 C         0.766713         3.235651         2.776655
 C         1.214186         2.952594         1.417755
 C        -0.065474         2.672174         0.642128
 H         0.454739        -0.191138         1.835034
 H        -2.454843         1.891979        -0.665595
 H        -2.467889         0.258281         0.361958
 H        -2.166025         1.342265         2.607785
 H        -1.927933         3.863426         1.114465
 H         1.366419         3.980834         3.438068
 H         0.664226         2.354838         3.396554
 H         1.569808         3.871450         0.856197
 H         1.866360         2.201718         1.279538
 H        -0.177571         3.123938        -0.362318
