19
Iteration:  1215
 O         0.113621        -0.061894         0.943067
 C        -0.675991         1.268474         0.803658
 C        -2.075102         1.174426         0.377167
 C        -1.710701         1.769239         1.738880
 C        -1.132063         3.218385         1.592715
 O        -0.537017         3.881112         2.657413
 C         0.831212         3.347033         2.803606
 C         1.239742         2.898297         1.395998
 C        -0.029122         2.642586         0.567582
 H         0.759737        -0.232655         0.240283
 H        -2.509999         1.860079        -0.343033
 H        -2.471871         0.053562         0.471674
 H        -2.139410         1.513767         2.738576
 H        -1.841490         3.915924         1.142433
 H         1.505069         4.178377         3.210503
 H         0.793908         2.583957         3.590991
 H         1.709433         3.752769         0.949695
 H         1.893012         1.988749         1.310942
 H        -0.050422         2.920204        -0.464038
