19
Iteration:  3515
 O         0.143995         0.062285         0.812147
 C        -0.642164         1.241470         0.796245
 C        -2.038516         1.193529         0.406945
 C        -1.649871         1.741946         1.870936
 C        -1.254601         3.223541         1.558238
 O        -0.491546         3.936307         2.555143
 C         0.747803         3.104735         2.863218
 C         1.254052         2.975931         1.445654
 C        -0.048419         2.583554         0.523202
 H         0.751564         0.103840         1.634693
 H        -2.483512         1.892324        -0.333738
 H        -2.524390         0.310504         0.240341
 H        -2.164760         1.378560         2.668363
 H        -1.918211         4.065334         1.288991
 H         1.293590         3.804284         3.515291
 H         0.496252         2.123147         3.362594
 H         1.910017         3.762516         1.065186
 H         2.064655         2.168225         1.373541
 H        -0.031532         3.102260        -0.468190
