19
Iteration:  3215
 O         0.144086         0.018313         0.898170
 C        -0.641502         1.145667         0.777285
 C        -2.053078         1.268757         0.313789
 C        -1.751063         1.755416         1.727129
 C        -1.174865         3.170337         1.578705
 O        -0.572747         3.813574         2.720375
 C         0.866299         3.368307         2.805300
 C         1.253111         2.841413         1.396044
 C        -0.051144         2.634915         0.652889
 H         1.059216         0.265438         1.033125
 H        -2.116085         1.851277        -0.590078
 H        -2.882991         0.517339         0.481926
 H        -2.416288         1.420905         2.473271
 H        -1.831101         3.976102         1.020746
 H         1.360770         4.307049         2.937778
 H         0.940969         2.771883         3.686900
 H         1.756777         3.692344         0.906022
 H         2.005081         2.026189         1.321306
 H        -0.142227         3.097433        -0.370538
