19
Iteration:  2243charge 0 multiplicity 1
 O         0.222485         0.134706         0.966640
 C        -0.658271         1.208437         0.882504
 C        -2.054258         1.221677         0.352417
 C        -1.808666         1.740856         1.757097
 C        -1.197801         3.209141         1.557150
 O        -0.503059         3.879595         2.662756
 C         0.839499         3.206999         2.834263
 C         1.262583         2.988345         1.318675
 C         0.008802         2.515301         0.590051
 H        -0.338514        -0.517591         0.450430
 H        -2.414613         1.763380        -0.625610
 H        -2.452462         0.186383         0.467529
 H        -2.380793         1.437145         2.642711
 H        -1.794978         3.950771         1.055796
 H         1.379389         3.965070         3.338019
 H         0.520725         2.267008         3.297876
 H         1.567772         4.026336         0.912976
 H         2.030926         2.236487         1.166649
 H        -0.068203         2.836244        -0.466871
