19
Iteration:  4426
 O         0.181473         0.074108         0.900398
 C        -0.606681         1.242024         0.842236
 C        -1.960086         1.209854         0.392052
 C        -1.739116         1.838359         1.743132
 C        -1.215108         3.190556         1.454733
 O        -0.492071         3.807016         2.714784
 C         0.712937         3.122212         2.843702
 C         1.212803         2.962420         1.282049
 C        -0.076220         2.675117         0.581540
 H         0.844950         0.014600         1.607420
 H        -2.172635         1.852623        -0.402061
 H        -2.697059         0.300821         0.486514
 H        -2.174364         1.574030         2.645014
 H        -1.940600         3.909095         1.206516
 H         1.352539         3.611312         3.553295
 H         0.425032         2.052555         3.359717
 H         1.564495         3.912288         1.041510
 H         2.078582         2.204265         1.239242
 H        -0.000119         3.048730        -0.452332
