19
Iteration:  1740
 O         0.197719         0.112389         1.015860
 C        -0.661959         1.188547         0.753503
 C        -2.083032         1.241571         0.341110
 C        -1.727090         1.737457         1.760101
 C        -1.180248         3.189773         1.624815
 O        -0.556010         3.951754         2.657772
 C         0.812073         3.334645         2.807805
 C         1.263241         2.819077         1.372774
 C        -0.031377         2.558338         0.571626
 H         0.186722        -0.362252         0.103226
 H        -2.459716         1.743808        -0.511843
 H        -2.735059         0.375159         0.317484
 H        -1.950304         1.056723         2.557455
 H        -2.093230         3.810237         1.277750
 H         1.389607         4.214083         3.167752
 H         0.902059         2.393158         3.477688
 H         2.004110         3.570906         0.987842
 H         1.966124         1.945813         1.403650
 H         0.075902         2.866807        -0.523689
