19
Iteration:  1335
 O         0.246626         0.071953         1.170936
 C        -0.636117         1.198492         0.862692
 C        -2.091516         1.321875         0.351169
 C        -1.802558         1.787309         1.710339
 C        -1.168390         3.192684         1.589819
 O        -0.543332         3.762162         2.710923
 C         0.773871         3.239075         2.676403
 C         1.276667         2.948202         1.276142
 C        -0.022388         2.624412         0.544531
 H         0.270677        -0.168875         0.214705
 H        -2.441301         2.064944        -0.433490
 H        -2.731835         0.417095         0.253817
 H        -2.249153         1.269541         2.656570
 H        -1.839608         3.879171         1.073926
 H         1.465330         3.828891         3.212974
 H         0.900501         2.309541         3.178845
 H         1.700957         3.834657         0.841053
 H         1.896990         2.069047         1.147608
 H         0.075349         2.870420        -0.564818
