19
Iteration:  3262charge 0 multiplicity 1
 O         0.034932        -0.033529         0.858076
 C        -0.616584         1.232632         0.849974
 C        -2.050993         1.192670         0.373162
 C        -1.684321         1.822360         1.667481
 C        -1.168014         3.206386         1.532117
 O        -0.555123         3.717544         2.684187
 C         0.794914         3.306854         2.826292
 C         1.317602         3.022453         1.378081
 C         0.016770         2.664172         0.609953
 H         0.453076        -0.200826         1.692832
 H        -2.584738         1.793581        -0.387372
 H        -2.333429         0.212252         0.519148
 H        -2.099480         1.480434         2.652430
 H        -1.956673         4.061542         1.308302
 H         1.212999         4.175321         3.233831
 H         0.865503         2.471682         3.476213
 H         1.632872         3.943812         0.997033
 H         2.171836         2.339525         1.209505
 H        -0.100784         2.865312        -0.422815
