19
Iteration:   906
 O         0.179977         0.051038         0.937173
 C        -0.672866         1.207029         0.741233
 C        -2.154929         1.091763         0.479064
 C        -1.598674         1.804903         1.786285
 C        -1.188804         3.230683         1.531767
 O        -0.458255         4.004049         2.624372
 C         0.737760         3.224448         2.810677
 C         1.259700         2.890831         1.421930
 C        -0.026408         2.692945         0.528423
 H        -0.181519        -0.728490         0.396767
 H        -2.500116         1.714217        -0.405573
 H        -2.583639         0.037346         0.577922
 H        -2.051410         1.532935         2.735266
 H        -1.968801         3.806331         0.997657
 H         1.517351         3.747946         3.413601
 H         0.396010         2.252500         3.379672
 H         2.085526         3.590603         1.065872
 H         1.728549         1.821897         1.574851
 H         0.001135         3.110725        -0.505619
