19
Iteration:  4482charge 0 multiplicity 1
 O         0.135023         0.062126         0.906246
 C        -0.596543         1.276043         0.856357
 C        -2.036843         1.215888         0.344945
 C        -1.756606         1.842250         1.745733
 C        -1.155474         3.232267         1.496624
 O        -0.565801         3.705727         2.680194
 C         0.772182         3.189625         2.805258
 C         1.234347         2.959987         1.359438
 C        -0.052232         2.680018         0.586568
 H         0.813343         0.204580         1.545024
 H        -2.436140         1.693782        -0.513217
 H        -2.305268         0.134932         0.512698
 H        -2.196375         1.349664         2.675585
 H        -1.855290         3.974691         1.178137
 H         1.526018         3.795675         3.321362
 H         0.803448         2.159817         3.353191
 H         1.718306         3.843376         1.005969
 H         2.144389         2.249206         1.445732
 H         0.019156         3.019200        -0.444512
