19
Iteration:   466
 O         0.165134         0.089069         1.151772
 C        -0.591269         1.286745         0.804719
 C        -2.141429         1.201331         0.455676
 C        -1.724614         1.840316         1.692206
 C        -1.163578         3.223883         1.441138
 O        -0.609764         3.765677         2.718380
 C         0.764830         3.137212         2.695182
 C         1.334981         2.920329         1.289352
 C         0.031324         2.721123         0.573013
 H         0.436878        -0.482806         0.360504
 H        -2.530930         1.632053        -0.465194
 H        -2.757452         0.227196         0.780897
 H        -1.933044         1.851873         2.802303
 H        -1.844825         3.889027         0.884981
 H         1.324697         3.751560         3.365564
 H         0.730145         2.143384         3.253110
 H         1.870325         3.828147         0.746429
 H         2.011707         2.052429         1.266052
 H        -0.064490         2.928975        -0.514947
