19
Iteration:  2151
 O         0.175091         0.094575         1.027092
 C        -0.669824         1.218968         0.826645
 C        -2.063191         1.076568         0.308272
 C        -1.745749         1.862672         1.792538
 C        -1.194200         3.296926         1.565965
 O        -0.454467         3.832785         2.677594
 C         0.774977         3.158356         2.768142
 C         1.211575         2.937744         1.319748
 C        -0.061788         2.627890         0.593562
 H         0.917036         0.189203         0.458356
 H        -2.262408         1.641775        -0.614784
 H        -2.618113         0.158508         0.380051
 H        -2.238644         1.458730         2.745928
 H        -1.978538         4.056443         1.291072
 H         1.596719         3.850906         3.150626
 H         0.735229         2.257155         3.191897
 H         1.638962         3.776311         0.866668
 H         1.963471         2.109879         1.427604
 H        -0.054167         2.979361        -0.455467
