19
Iteration:  2576charge 0 multiplicity 1
 O         0.192995         0.146441         0.974707
 C        -0.663553         1.228069         0.768431
 C        -2.117253         1.184759         0.528860
 C        -1.644098         1.767408         1.789365
 C        -1.188274         3.313312         1.486108
 O        -0.568125         3.833424         2.618650
 C         0.743461         3.198608         2.775469
 C         1.268803         2.823763         1.381487
 C        -0.015956         2.624723         0.568119
 H         0.725543         0.005682         0.209976
 H        -2.703984         1.868431        -0.253193
 H        -2.539647         0.139665         0.573285
 H        -1.898217         1.339949         2.842512
 H        -1.844817         4.072918         1.138747
 H         1.338165         3.906206         3.227408
 H         0.737666         2.328101         3.380675
 H         1.718678         3.640166         0.860461
 H         1.893291         1.885742         1.224995
 H         0.227869         2.916521        -0.461053
