19
Iteration:  4797
 O         0.205822         0.176318         0.860055
 C        -0.639819         1.255442         0.797068
 C        -2.010025         1.207073         0.383715
 C        -1.656865         1.789181         1.733913
 C        -1.195110         3.215941         1.532788
 O        -0.559543         3.853165         2.625834
 C         0.759566         3.117474         2.812595
 C         1.231248         2.843265         1.435313
 C        -0.042331         2.642402         0.602935
 H         0.331319         0.067570         1.875415
 H        -2.393057         1.926656        -0.380453
 H        -2.559734         0.233989         0.312372
 H        -2.166247         1.671561         2.761965
 H        -2.010589         3.924880         1.244897
 H         1.305224         3.591925         3.570317
 H         0.523671         2.103752         3.230055
 H         1.590274         3.742360         1.014606
 H         1.787714         1.970236         1.257399
 H         0.149052         2.915364        -0.442685
