19
Iteration:   408charge 0 multiplicity 1
 O         0.258742         0.036679         1.015626
 C        -0.646094         1.164947         0.923087
 C        -2.071129         1.211737         0.313244
 C        -1.839461         1.802655         1.754047
 C        -1.181708         3.273168         1.568378
 O        -0.453183         3.874101         2.646343
 C         0.738518         3.280756         2.746586
 C         1.309446         2.963186         1.325747
 C        -0.044061         2.574147         0.605354
 H        -0.172689        -0.750210         0.769501
 H        -2.132124         2.041708        -0.476004
 H        -2.791355         0.374951         0.354908
 H        -2.319538         1.511691         2.602614
 H        -1.948193         3.938318         1.186179
 H         1.349072         3.840666         3.431750
 H         0.636174         2.179128         3.027227
 H         1.736879         3.722737         0.610668
 H         1.928378         2.016898         1.444014
 H        -0.098650         2.775574        -0.564530
