19
Iteration:  4528charge 0 multiplicity 1
 O         0.124192         0.061184         0.875926
 C        -0.566944         1.258949         0.827671
 C        -2.063955         1.217141         0.319308
 C        -1.724881         1.723891         1.679509
 C        -1.225426         3.144820         1.588627
 O        -0.489320         3.829856         2.619943
 C         0.761631         3.226937         2.804279
 C         1.247877         2.959633         1.393263
 C        -0.047074         2.663044         0.687419
 H         0.391235        -0.122978         1.803146
 H        -2.416873         2.022152        -0.456911
 H        -2.426585         0.270779         0.350994
 H        -2.053638         1.262379         2.655024
 H        -1.911083         3.886995         1.154256
 H         1.367386         4.078734         3.393437
 H         0.822631         2.335197         3.510069
 H         1.727513         3.899177         1.101473
 H         1.942127         2.176881         1.064001
 H         0.075710         3.063279        -0.310850
