19
Iteration:  3795
 O         0.098745         0.001348         0.825900
 C        -0.632132         1.180894         0.768369
 C        -2.048071         1.250998         0.382156
 C        -1.672939         1.759471         1.750712
 C        -1.151184         3.153039         1.605001
 O        -0.482413         3.882545         2.699135
 C         0.716741         3.251085         2.826100
 C         1.265295         3.020580         1.350621
 C        -0.010278         2.596270         0.573618
 H         0.230088        -0.193989         1.719581
 H        -2.463718         1.830582        -0.467033
 H        -2.503394         0.167677         0.373559
 H        -2.305851         1.493566         2.726872
 H        -1.937577         3.840459         1.234630
 H         1.329741         3.995390         3.313404
 H         0.667523         2.300878         3.402844
 H         1.603146         4.052176         1.208004
 H         2.111454         2.419805         1.205692
 H         0.054080         2.865928        -0.397569
