19
Iteration:  3471
 O         0.103376         0.059225         0.801643
 C        -0.601531         1.209523         0.768161
 C        -2.051810         1.129738         0.478858
 C        -1.671149         1.898798         1.764097
 C        -1.182808         3.289798         1.496250
 O        -0.567937         3.740723         2.697414
 C         0.757980         3.273905         2.857391
 C         1.233068         2.858529         1.437899
 C        -0.036769         2.660533         0.553442
 H         0.931169         0.462431         1.227083
 H        -2.355906         1.581433        -0.475520
 H        -2.591382         0.239384         0.503484
 H        -2.112677         1.655143         2.646377
 H        -1.937065         4.057174         1.194342
 H         1.484608         4.003673         3.137694
 H         0.715213         2.352123         3.504506
 H         1.794832         3.617849         0.919131
 H         1.998660         2.094004         1.338708
 H         0.385792         2.748996        -0.449350
