19
Iteration:  3003charge 0 multiplicity 1
 O         0.040010         0.013360         0.965964
 C        -0.615291         1.240694         0.808804
 C        -2.016792         1.170792         0.332129
 C        -1.779364         1.812678         1.677529
 C        -1.126140         3.122648         1.636058
 O        -0.474255         3.818575         2.659643
 C         0.761700         3.171379         2.766874
 C         1.282428         3.136919         1.310706
 C        -0.024997         2.631230         0.641353
 H         0.479113        -0.082923         1.794446
 H        -2.439603         1.705114        -0.530123
 H        -2.461539         0.176102         0.439924
 H        -2.167619         1.481727         2.622787
 H        -1.850467         3.917612         1.108016
 H         1.443346         3.713034         3.414736
 H         0.730005         2.134373         3.108800
 H         1.615062         4.128729         0.914816
 H         2.104632         2.400548         1.184331
 H        -0.032741         3.141072        -0.343636
