19
Iteration:  4858charge 0 multiplicity 1
 O         0.037711         0.009803         0.795166
 C        -0.584707         1.205328         0.950736
 C        -2.036876         1.214052         0.358298
 C        -1.781015         1.846598         1.675707
 C        -1.102896         3.171066         1.521672
 O        -0.597196         3.742634         2.708347
 C         0.766597         3.267851         2.839592
 C         1.284688         3.030688         1.391931
 C         0.010809         2.616556         0.616343
 H         0.900163        -0.083157         1.296396
 H        -2.382103         1.796107        -0.520869
 H        -2.256641         0.241366         0.405385
 H        -2.143486         1.775174         2.646783
 H        -1.753912         3.909492         1.090171
 H         1.341592         4.027151         3.378731
 H         0.789186         2.294867         3.335397
 H         1.770043         3.981872         1.032564
 H         2.161555         2.355198         1.312056
 H         0.087385         2.895131        -0.479227
