19
Iteration:  4176
 O         0.123116         0.021749         0.904191
 C        -0.645800         1.180569         0.720639
 C        -2.077346         1.200953         0.356320
 C        -1.664993         1.828578         1.731067
 C        -1.151086         3.252830         1.550572
 O        -0.581566         3.748248         2.713820
 C         0.797571         3.183410         2.801569
 C         1.269612         3.043779         1.367918
 C        -0.031831         2.677436         0.617164
 H         0.414758         0.026242         1.840348
 H        -2.425704         1.738280        -0.538406
 H        -2.492246         0.265946         0.683314
 H        -2.131960         1.350725         2.688910
 H        -1.859815         3.952694         1.144696
 H         1.455460         3.848562         3.286153
 H         0.905364         2.245433         3.382273
 H         1.668994         4.040203         0.979191
 H         2.064471         2.358289         1.097037
 H         0.031290         2.904401        -0.392775
