19
Iteration:  4453
 O         0.124176         0.073038         0.950432
 C        -0.648125         1.295601         0.796802
 C        -2.099071         1.130425         0.395486
 C        -1.725559         1.834988         1.664381
 C        -1.181544         3.238617         1.479696
 O        -0.555568         3.738989         2.710712
 C         0.767190         3.120813         2.808393
 C         1.300575         2.989151         1.359842
 C         0.011377         2.684800         0.583096
 H         0.974361         0.244213         1.362686
 H        -2.685016         1.603140        -0.584774
 H        -2.406576         0.162049         0.701940
 H        -1.994802         1.366797         2.669534
 H        -1.944966         4.035709         1.165498
 H         1.453840         3.742729         3.570969
 H         0.673602         2.200217         3.313035
 H         1.603034         4.076909         1.077672
 H         2.202922         2.467021         1.336127
 H         0.174134         3.036624        -0.440803
