19
Iteration:  1199
 O        -0.024451         0.027635         0.928726
 C        -0.615744         1.170582         0.774593
 C        -2.069549         1.193551         0.421424
 C        -1.634421         1.777558         1.774022
 C        -1.202135         3.191392         1.464637
 O        -0.577544         3.825348         2.687563
 C         0.872777         3.415639         2.803469
 C         1.286124         2.941342         1.403330
 C        -0.009459         2.559336         0.642578
 H         0.493336        -0.144338         0.050225
 H        -2.505017         1.739801        -0.450844
 H        -2.516538         0.267142         0.417235
 H        -1.858959         1.181072         2.633554
 H        -1.952789         3.940179         1.079964
 H         1.375759         4.261031         3.262968
 H         1.104476         2.654202         3.645430
 H         1.909330         3.704897         0.837958
 H         2.058456         2.181587         1.488361
 H         0.234559         3.035892        -0.420775
