19
Iteration:   206charge 0 multiplicity 1
 O         0.119654         0.135233         1.146567
 C        -0.673521         1.180268         0.873712
 C        -1.938126         1.174200         0.254857
 C        -1.763247         1.813795         1.712283
 C        -1.190305         3.224252         1.528815
 O        -0.435072         3.813252         2.705870
 C         0.855631         3.219451         2.774127
 C         1.216779         2.995747         1.254167
 C        -0.105494         2.577679         0.572432
 H        -0.453713        -0.652110         1.061424
 H        -2.155599         1.866387        -0.541186
 H        -2.473695         0.272985         0.214319
 H        -2.475801         1.546125         2.457995
 H        -1.965989         3.903604         1.250372
 H         1.536825         3.942775         3.312805
 H         0.936245         2.291601         3.302138
 H         1.475248         3.943549         0.911393
 H         1.959795         2.268157         1.091267
 H         0.101906         2.685177        -0.527299
