19
Iteration:  2495charge 0 multiplicity 1
 O         0.153303         0.090324         1.067250
 C        -0.630159         1.230346         0.931270
 C        -2.025077         1.211107         0.383016
 C        -1.792762         1.893995         1.713599
 C        -1.185809         3.238651         1.473638
 O        -0.546023         3.587394         2.719538
 C         0.847735         3.231898         2.696721
 C         1.297526         3.074122         1.251277
 C        -0.004599         2.599198         0.596270
 H        -0.560023        -0.542041         0.937540
 H        -2.491191         1.709404        -0.462644
 H        -2.347109         0.148682         0.403294
 H        -2.084735         1.658330         2.670864
 H        -1.769782         4.119246         1.244964
 H         1.382637         4.138328         3.273280
 H         0.929726         2.264673         3.270860
 H         1.482861         4.059685         0.737301
 H         2.083691         2.394620         1.061499
 H        -0.166636         2.912875        -0.460128
