19
Iteration:  4845
 O         0.024719         0.021590         0.826598
 C        -0.614588         1.293039         0.829729
 C        -1.975035         1.164977         0.380592
 C        -1.707019         1.799685         1.759405
 C        -1.143859         3.251419         1.500579
 O        -0.555866         3.758032         2.678788
 C         0.714795         3.193203         2.803971
 C         1.297735         3.013370         1.405524
 C         0.027870         2.626917         0.667831
 H         0.748020         0.133260         1.418375
 H        -2.216785         1.715860        -0.543212
 H        -2.578548         0.291031         0.442254
 H        -2.160549         1.220404         2.454594
 H        -1.729840         4.035052         0.997437
 H         1.355518         3.988817         3.374450
 H         0.695601         2.356781         3.501325
 H         1.585643         4.026235         0.997225
 H         2.057859         2.144053         1.364078
 H        -0.208907         2.963756        -0.459642
