19
Iteration:  1074
 O         0.270035         0.192376         1.015600
 C        -0.607793         1.268420         0.842720
 C        -2.103115         1.148053         0.493545
 C        -1.694817         1.937459         1.755771
 C        -1.190282         3.296428         1.481969
 O        -0.471858         3.781974         2.586266
 C         0.647329         2.992522         2.740271
 C         1.239122         2.915862         1.353142
 C        -0.048799         2.712670         0.526926
 H        -0.204958        -0.671589         1.207137
 H        -2.525360         1.395739        -0.393320
 H        -2.365547         0.028923         0.708779
 H        -1.854090         1.644298         2.744239
 H        -1.851321         4.046782         1.183180
 H         1.427521         3.382693         3.453440
 H         0.328636         1.959999         3.115955
 H         1.690975         3.882762         1.184904
 H         1.873019         2.023071         1.181655
 H         0.070636         2.939986        -0.543962
