19
Iteration:  2175charge 0 multiplicity 1
 O         0.200513         0.182678         1.073261
 C        -0.626391         1.286364         0.809144
 C        -2.175316         1.160352         0.432214
 C        -1.737045         1.847214         1.749399
 C        -1.145544         3.245555         1.450125
 O        -0.530179         3.746104         2.622479
 C         0.807238         3.097358         2.856733
 C         1.277705         2.944727         1.320653
 C        -0.059906         2.655188         0.571918
 H         0.762412        -0.005695         0.254259
 H        -2.707613         1.520385        -0.413291
 H        -2.432583         0.016882         0.635857
 H        -2.166732         1.423184         2.619329
 H        -1.868184         3.901622         0.996646
 H         1.485139         3.828201         3.328072
 H         0.731338         2.100160         3.198498
 H         1.646149         3.818708         0.859857
 H         2.075871         2.137050         1.372968
 H        -0.087839         3.028416        -0.450725
