19
Iteration:   717charge 0 multiplicity 1
 O         0.099720         0.097668         1.129310
 C        -0.607783         1.218963         0.799856
 C        -2.042537         1.261950         0.444227
 C        -1.675315         1.759754         1.754381
 C        -1.125934         3.204150         1.515942
 O        -0.464993         3.871064         2.602715
 C         0.733500         3.158525         2.773173
 C         1.162201         2.909986         1.301029
 C        -0.067137         2.633691         0.550298
 H         0.552563        -0.306341         0.427002
 H        -2.438495         2.080104        -0.311562
 H        -2.527200         0.326975         0.290555
 H        -2.068694         1.158580         2.574480
 H        -1.893256         3.957837         1.258250
 H         1.398422         3.876436         3.187903
 H         0.831725         2.360308         3.500694
 H         1.723268         3.798483         0.793811
 H         1.846627         2.078258         1.237817
 H         0.146203         2.873479        -0.522385
