19
Iteration:  3820charge 0 multiplicity 1
 O         0.113275         0.038184         0.878762
 C        -0.644168         1.242654         0.860767
 C        -2.012972         1.241015         0.379000
 C        -1.712600         1.759881         1.784726
 C        -1.177075         3.216511         1.498815
 O        -0.513050         3.806242         2.681249
 C         0.737534         3.180670         2.797955
 C         1.301750         2.971767         1.326242
 C        -0.089946         2.665627         0.633830
 H         0.835905         0.127747         1.514908
 H        -2.425150         1.977753        -0.485298
 H        -2.522424         0.305935         0.296185
 H        -1.954817         1.129784         2.639108
 H        -1.903323         3.936488         1.037202
 H         1.346341         3.982926         3.357673
 H         0.635873         2.189170         3.347176
 H         1.865231         3.905861         1.114073
 H         1.992360         2.115939         1.087578
 H        -0.055359         2.943397        -0.438810
