19
Iteration:   481charge 0 multiplicity 1
 O         0.150775         0.140656         1.130313
 C        -0.655661         1.221259         0.857558
 C        -2.071894         1.179525         0.423856
 C        -1.744636         1.857243         1.766076
 C        -1.151722         3.232942         1.488689
 O        -0.500478         3.792421         2.593120
 C         0.750649         3.132910         2.759016
 C         1.272827         2.944863         1.313844
 C        -0.040365         2.610937         0.522558
 H         0.741230         0.056223         0.329292
 H        -2.408483         1.929874        -0.310395
 H        -2.449877         0.238749         0.392500
 H        -2.231950         1.388388         2.696168
 H        -1.856250         4.025420         1.146765
 H         1.447146         3.690033         3.475828
 H         0.580701         2.121251         3.175328
 H         1.740995         3.843618         0.972730
 H         1.954304         2.092579         1.240034
 H         0.018270         2.994777        -0.458195
