19
Iteration:  4060charge 0 multiplicity 1
 O         0.150646         0.035536         0.758067
 C        -0.490694         1.240243         0.821921
 C        -2.074317         1.180752         0.505343
 C        -1.684579         1.848670         1.741321
 C        -1.155649         3.274798         1.484232
 O        -0.597842         3.836318         2.656751
 C         0.714560         3.110625         2.800296
 C         1.250753         2.886160         1.382471
 C        -0.068237         2.672258         0.644947
 H         0.687606         0.030711         1.589308
 H        -2.418915         1.878416        -0.258685
 H        -2.575378         0.200938         0.627667
 H        -1.945791         1.719501         2.730055
 H        -1.953963         3.985753         1.069048
 H         1.373025         3.812779         3.502580
 H         0.510707         2.218706         3.446506
 H         1.601471         3.870868         1.109841
 H         2.108498         2.245207         1.214495
 H         0.115836         2.986760        -0.438362
