19
Iteration:  4258
 O         0.150787         0.106040         0.830486
 C        -0.599667         1.242564         0.806173
 C        -2.069901         1.144108         0.460765
 C        -1.652505         1.816875         1.712479
 C        -1.174030         3.273517         1.510605
 O        -0.548589         3.777881         2.662433
 C         0.703145         3.164355         2.866841
 C         1.294932         2.876717         1.395953
 C        -0.063762         2.693256         0.579821
 H         0.774120         0.129740         1.525373
 H        -2.578388         1.605322        -0.367753
 H        -2.568828         0.263378         0.547479
 H        -2.172516         1.639494         2.694042
 H        -1.973237         3.922644         1.033800
 H         1.412280         3.882259         3.308774
 H         0.691448         2.219417         3.354830
 H         1.593704         3.919117         0.960318
 H         2.171248         2.108639         1.384514
 H         0.008212         3.093261        -0.517935
