19
Iteration:   638
 O         0.230350         0.057879         0.977312
 C        -0.613267         1.232937         0.754948
 C        -2.163041         1.196441         0.491971
 C        -1.694142         1.847991         1.749065
 C        -1.084107         3.222553         1.504063
 O        -0.554281         3.890241         2.650470
 C         0.690953         3.224655         2.817126
 C         1.260390         2.880975         1.346780
 C         0.006358         2.628595         0.513361
 H        -0.341375        -0.665908         0.836965
 H        -2.723495         1.709797        -0.306887
 H        -2.513462         0.140506         0.667337
 H        -1.815541         1.517656         2.859924
 H        -1.686487         4.034962         1.007402
 H         1.319465         3.882614         3.387966
 H         0.543461         2.206874         3.251433
 H         1.900082         3.586761         0.795983
 H         1.869756         2.005865         1.611937
 H         0.050948         3.073954        -0.478486
