19
Iteration:  2916charge 0 multiplicity 1
 O         0.112477        -0.009219         0.810276
 C        -0.543594         1.222254         0.741452
 C        -2.023339         1.213238         0.455071
 C        -1.670441         1.811447         1.832100
 C        -1.184407         3.237035         1.557196
 O        -0.499437         3.890246         2.584574
 C         0.715203         3.181054         2.853890
 C         1.208383         2.938430         1.414781
 C        -0.045330         2.651116         0.555479
 H         0.615082        -0.045142         1.639432
 H        -2.617318         1.866423        -0.201918
 H        -2.285999         0.073507         0.520028
 H        -2.189636         1.361564         2.731974
 H        -1.801873         4.112216         1.107766
 H         1.233049         3.901763         3.441579
 H         0.451427         2.236004         3.441798
 H         1.722160         3.737780         0.887365
 H         1.817571         2.033325         1.482652
 H         0.023848         3.037225        -0.492029
