19
Iteration:   279charge 0 multiplicity 1
 O         0.084561         0.038236         1.076500
 C        -0.662336         1.210202         0.753279
 C        -2.091966         1.156328         0.401826
 C        -1.629667         1.749367         1.770748
 C        -1.167676         3.255651         1.510913
 O        -0.512048         3.910183         2.600794
 C         0.818663         3.287210         2.855973
 C         1.204200         2.880173         1.386020
 C        -0.010886         2.633137         0.521878
 H         0.584911        -0.309890         0.256963
 H        -2.602167         1.812297        -0.378452
 H        -2.568977         0.214990         0.483829
 H        -2.029870         1.490562         2.658069
 H        -1.841284         3.889991         0.911977
 H         1.557854         3.880633         3.308005
 H         0.697064         2.398768         3.554948
 H         1.728368         3.838352         0.923418
 H         1.981809         2.043106         1.338408
 H         0.057968         2.969276        -0.487450
