19
Iteration:  1412charge 0 multiplicity 1
 O         0.178227         0.039575         0.905332
 C        -0.563256         1.237179         0.871024
 C        -2.108339         1.272872         0.521548
 C        -1.698247         1.798470         1.785250
 C        -1.160853         3.203389         1.487697
 O        -0.560884         3.818031         2.597409
 C         0.740962         3.264551         2.814035
 C         1.207371         2.949644         1.408452
 C         0.035061         2.551572         0.550644
 H        -0.190036        -0.546731         0.154118
 H        -2.445454         1.949233        -0.345980
 H        -2.568745         0.340376         0.565925
 H        -1.986403         1.574907         2.852138
 H        -1.832663         3.843979         0.916193
 H         1.400782         4.032363         3.105974
 H         0.797278         2.308568         3.458153
 H         1.681685         3.856951         1.079501
 H         2.058531         2.304856         1.294705
 H         0.030042         2.746628        -0.576429
