19
Iteration:  1391charge 0 multiplicity 1
 O         0.081422         0.012103         0.971921
 C        -0.713536         1.178665         0.777543
 C        -2.127248         1.115336         0.431064
 C        -1.679503         1.775652         1.720185
 C        -1.139248         3.212760         1.496988
 O        -0.521954         3.808419         2.687511
 C         0.809963         3.367070         2.813519
 C         1.357397         3.050882         1.372764
 C        -0.016477         2.604607         0.635370
 H         0.247731        -0.269960         0.101761
 H        -2.484238         1.838018        -0.391179
 H        -2.469373         0.136413         0.586648
 H        -2.228067         1.575705         2.665063
 H        -1.691821         3.971699         0.999812
 H         1.280560         4.126231         3.449102
 H         0.811015         2.400282         3.231981
 H         1.906204         3.793586         0.812833
 H         1.993783         2.230025         1.277811
 H         0.037343         2.872536        -0.438192
