19
Iteration:  1169
 O         0.119926        -0.080137         0.887631
 C        -0.626578         1.185423         0.833076
 C        -2.109616         1.304266         0.441648
 C        -1.719622         1.756793         1.764484
 C        -1.196767         3.127398         1.465806
 O        -0.597574         3.831237         2.688017
 C         0.883510         3.451551         2.827581
 C         1.313626         2.956327         1.388961
 C         0.033013         2.606542         0.603813
 H        -0.130697        -0.720540         0.251211
 H        -2.468744         2.051362        -0.356665
 H        -2.596053         0.239812         0.308155
 H        -2.070858         1.356503         2.639551
 H        -1.964633         3.848347         1.046280
 H         1.292069         4.391969         3.216062
 H         1.049212         2.777372         3.705082
 H         1.810944         3.742435         0.885483
 H         1.970806         1.991602         1.418027
 H         0.072850         3.104670        -0.416305
