19
Iteration:   109
 O         0.225227         0.119969         0.967040
 C        -0.645044         1.253745         0.884215
 C        -2.041987         1.122863         0.385331
 C        -1.676375         1.808631         1.814785
 C        -1.106435         3.302612         1.511657
 O        -0.490667         3.933933         2.523423
 C         0.636904         3.196140         2.870926
 C         1.209137         2.801854         1.341999
 C        -0.043262         2.624031         0.599845
 H        -0.226431        -0.659892         0.560150
 H        -2.474840         1.727056        -0.408935
 H        -2.393312         0.174233         0.472392
 H        -1.972226         1.393565         2.709865
 H        -1.708018         4.034659         1.052857
 H         1.420305         3.835263         3.393748
 H         0.519095         2.273271         3.419632
 H         1.657246         3.647182         0.987346
 H         1.738221         1.888979         1.276292
 H        -0.048571         2.980463        -0.407978
