19
Iteration:  1903charge 0 multiplicity 1
 O         0.141015         0.043579         1.082310
 C        -0.650109         1.286378         0.780961
 C        -2.074912         1.140067         0.335031
 C        -1.758943         1.788123         1.686018
 C        -1.232731         3.245661         1.589145
 O        -0.504370         3.745434         2.751823
 C         0.839723         3.307169         2.715213
 C         1.314324         2.922881         1.315163
 C        -0.025292         2.691561         0.573855
 H         0.325000        -0.371806         0.252602
 H        -2.492523         1.689073        -0.641726
 H        -2.639762         0.273502         0.570027
 H        -2.339297         1.392703         2.543746
 H        -1.898668         4.082454         1.228371
 H         1.392091         4.126950         3.188883
 H         0.867903         2.502178         3.488729
 H         2.003465         3.678142         0.968896
 H         1.896899         1.895046         1.408035
 H         0.007780         2.990481        -0.481611
