19
Iteration:  3512
 O         0.153973         0.069410         0.820293
 C        -0.674220         1.248667         0.759903
 C        -2.044987         1.178334         0.420975
 C        -1.646828         1.760508         1.857862
 C        -1.278414         3.231549         1.582077
 O        -0.485069         3.926690         2.547293
 C         0.762252         3.115292         2.836810
 C         1.260862         2.959100         1.440179
 C        -0.027682         2.603614         0.570728
 H         0.800535         0.105290         1.544154
 H        -2.387483         1.936229        -0.337279
 H        -2.537895         0.192999         0.285198
 H        -2.267307         1.337628         2.659032
 H        -1.937127         3.950187         1.169841
 H         1.180449         3.762935         3.552492
 H         0.547559         2.174014         3.366940
 H         1.886992         3.786789         1.161673
 H         2.060429         2.055472         1.384898
 H        -0.007526         3.063411        -0.493395
