19
Iteration:  3298
 O         0.151609         0.065501         0.919266
 C        -0.565363         1.241982         0.829119
 C        -2.078926         1.268398         0.339185
 C        -1.648174         1.774976         1.749569
 C        -1.173932         3.225317         1.575937
 O        -0.508515         3.819654         2.628107
 C         0.672928         3.113129         2.809779
 C         1.278520         2.968785         1.306884
 C        -0.039612         2.630033         0.591124
 H         0.434177        -0.091466         1.824956
 H        -2.611956         1.731931        -0.462404
 H        -2.545888         0.237994         0.606173
 H        -2.138096         1.524361         2.748850
 H        -1.930441         3.888748         1.135614
 H         1.342819         3.653012         3.564850
 H         0.534818         2.200159         3.353459
 H         1.494943         4.084484         1.108877
 H         2.164279         2.370963         1.157958
 H        -0.121901         3.029720        -0.417766
