19
Iteration:  3095
 O         0.099175         0.070904         0.915812
 C        -0.648700         1.207061         0.717997
 C        -2.072098         1.149770         0.356879
 C        -1.661013         1.885650         1.754619
 C        -1.187070         3.203509         1.499994
 O        -0.536777         3.834051         2.772056
 C         0.806778         3.254474         2.800518
 C         1.288798         2.863166         1.379526
 C        -0.065052         2.614172         0.633105
 H         1.024237         0.374691         1.161205
 H        -2.477508         1.497038        -0.631416
 H        -2.372268         0.015168         0.354660
 H        -2.376094         1.700966         2.614830
 H        -1.895233         4.024567         1.023323
 H         1.391640         4.070455         3.255775
 H         0.797731         2.414594         3.546218
 H         1.792657         3.709213         0.897588
 H         2.007292         2.027573         1.264403
 H        -0.181840         3.015403        -0.393580
