19
Iteration:  1166
 O         0.127113        -0.071748         0.876354
 C        -0.647687         1.190809         0.837259
 C        -2.099388         1.280037         0.438585
 C        -1.703969         1.756923         1.736272
 C        -1.204797         3.153892         1.473589
 O        -0.586742         3.835719         2.691395
 C         0.882659         3.452591         2.823029
 C         1.317549         2.951930         1.409966
 C         0.018171         2.583734         0.623728
 H        -0.163083        -0.795938         0.288580
 H        -2.341589         2.089219        -0.318400
 H        -2.543564         0.368475         0.386439
 H        -2.092567         1.330406         2.668716
 H        -1.989942         3.849133         1.034240
 H         1.303640         4.412592         3.107352
 H         1.000173         2.673128         3.680306
 H         1.794749         3.808287         0.847224
 H         1.874390         2.031850         1.397942
 H         0.015771         3.031145        -0.473425
