19
Iteration:   160charge 0 multiplicity 1
 O         0.214717         0.265574         1.054584
 C        -0.624808         1.285067         0.932552
 C        -2.092797         1.147169         0.458946
 C        -1.721000         1.885019         1.718289
 C        -1.120876         3.246934         1.409329
 O        -0.536083         3.747594         2.643031
 C         0.724314         3.044639         2.823266
 C         1.232377         2.905610         1.321541
 C         0.005082         2.576694         0.408288
 H        -0.216846        -0.436868         1.456596
 H        -2.392330         1.586961        -0.519176
 H        -2.592780         0.202059         0.681993
 H        -2.105178         1.732856         2.680083
 H        -1.736144         4.071679         0.957272
 H         1.452018         3.683812         3.327645
 H         0.748139         2.116238         3.385401
 H         1.416936         4.003819         1.294542
 H         2.029033         2.173066         1.156868
 H        -0.030072         3.031122        -0.643724
