19
Iteration:  3600
 O         0.152873         0.035122         0.930501
 C        -0.638244         1.201271         0.858639
 C        -2.072936         1.241283         0.309205
 C        -1.816196         1.789016         1.701557
 C        -1.204095         3.200634         1.602263
 O        -0.500149         3.765476         2.755900
 C         0.795848         3.284086         2.809145
 C         1.253686         2.986585         1.314082
 C        -0.004293         2.600851         0.541092
 H         0.959121         0.136697         1.412201
 H        -2.183026         1.951752        -0.573971
 H        -2.622418         0.319743         0.309212
 H        -2.298323         1.438506         2.574306
 H        -1.822398         3.996796         1.190767
 H         1.436500         4.007461         3.259828
 H         1.012468         2.433044         3.489507
 H         1.754986         3.774938         0.772267
 H         1.816953         1.944689         1.319405
 H        -0.014980         3.002018        -0.557930
