19
Iteration:  2930charge 0 multiplicity 1
 O         0.110092         0.111734         0.840099
 C        -0.688017         1.284753         0.788414
 C        -2.050119         1.109235         0.434649
 C        -1.675708         1.767606         1.749470
 C        -1.130647         3.207284         1.521117
 O        -0.467899         3.919414         2.588713
 C         0.709432         3.197385         2.845623
 C         1.247070         2.838306         1.421129
 C        -0.060912         2.675026         0.631112
 H         0.777385         0.241137         1.531506
 H        -2.455987         1.469192        -0.637287
 H        -2.471335         0.163344         0.613262
 H        -1.968186         1.369894         2.683125
 H        -1.932338         3.756485         1.130947
 H         1.485466         3.714625         3.466745
 H         0.569660         2.239674         3.429028
 H         1.803965         3.806920         1.196576
 H         2.005408         2.098842         1.227790
 H        -0.052813         3.156677        -0.402231
