19
Iteration:  4467
 O         0.059428         0.126932         0.934562
 C        -0.606977         1.258403         0.762416
 C        -2.044563         1.089530         0.433554
 C        -1.765956         1.816086         1.712598
 C        -1.155584         3.202605         1.484434
 O        -0.512122         3.699358         2.682146
 C         0.764340         3.144122         2.862825
 C         1.299079         3.064063         1.408350
 C        -0.004284         2.686641         0.551287
 H         0.940266         0.362727         1.393321
 H        -2.420072         1.722110        -0.378351
 H        -2.479895         0.113414         0.330262
 H        -2.180423         1.651853         2.635211
 H        -1.730719         4.054075         1.034514
 H         1.215272         3.915828         3.446469
 H         0.706980         2.137332         3.342051
 H         1.784819         4.032559         0.960805
 H         1.876122         2.065115         1.105813
 H        -0.053076         3.046577        -0.515335
