19
Iteration:   526charge 0 multiplicity 1
 O         0.148928         0.048031         1.082177
 C        -0.596016         1.197386         0.829782
 C        -2.129208         1.221747         0.389738
 C        -1.723016         1.779181         1.777060
 C        -1.152633         3.272771         1.529634
 O        -0.505110         3.854525         2.632101
 C         0.729226         3.200975         2.748004
 C         1.303493         2.947017         1.292438
 C        -0.058717         2.645438         0.575161
 H         0.680446        -0.230965         0.253059
 H        -2.478541         1.703176        -0.490629
 H        -2.602013         0.250499         0.574671
 H        -2.204035         1.442643         2.651347
 H        -1.772473         4.077223         1.093036
 H         1.377504         3.857267         3.417662
 H         0.663644         2.199001         3.208807
 H         1.961633         3.650219         0.928460
 H         1.871685         2.021803         1.510764
 H        -0.024920         2.883586        -0.463607
