19
Iteration:  1231charge 0 multiplicity 1
 O         0.166213         0.062161         0.986241
 C        -0.599152         1.139914         0.831236
 C        -2.092447         1.213571         0.404244
 C        -1.730139         1.781960         1.769502
 C        -1.192294         3.220143         1.539732
 O        -0.476116         3.894303         2.611051
 C         0.764582         3.231206         2.796291
 C         1.263430         2.907384         1.348226
 C        -0.073579         2.650689         0.645842
 H         0.573048         0.062124         0.148249
 H        -2.350549         1.804473        -0.486719
 H        -2.619363         0.360612         0.553705
 H        -2.226491         1.301627         2.611519
 H        -1.911469         3.944361         1.098557
 H         1.429296         3.967791         3.209220
 H         0.590920         2.204999         3.156115
 H         1.913278         3.722457         0.839157
 H         1.789504         1.992486         1.524378
 H        -0.059846         3.063577        -0.416479
