19
Iteration:  1472
 O         0.272241         0.240972         0.875932
 C        -0.721241         1.252239         0.811976
 C        -2.102103         1.093407         0.455970
 C        -1.677666         1.808672         1.825653
 C        -1.109621         3.294288         1.462651
 O        -0.537398         3.844897         2.605075
 C         0.752953         3.191040         2.815802
 C         1.233593         2.804488         1.433324
 C        -0.062657         2.583847         0.531314
 H        -0.123563        -0.589042         1.149426
 H        -2.404593         1.722386        -0.385706
 H        -2.632409         0.049478         0.501376
 H        -1.911393         1.592464         2.903597
 H        -1.657313         4.141434         0.976679
 H         1.360308         3.961290         3.392499
 H         0.673671         2.407513         3.489071
 H         1.668159         3.739600         1.078922
 H         1.810040         1.844616         1.456455
 H        -0.041411         2.893490        -0.498061
