19
Iteration:  4943
 O         0.190707         0.122267         0.868202
 C        -0.647668         1.190377         0.789042
 C        -2.055220         1.185114         0.393864
 C        -1.706810         1.786181         1.739686
 C        -1.138792         3.270326         1.461411
 O        -0.547339         3.802117         2.721639
 C         0.754838         3.129391         2.841447
 C         1.237932         2.937236         1.417188
 C        -0.053868         2.660568         0.540043
 H         0.633144         0.139920         1.694413
 H        -2.470195         1.948968        -0.408233
 H        -2.495243         0.251102         0.476709
 H        -2.229261         1.509446         2.540418
 H        -1.821122         4.082948         1.057723
 H         1.359451         3.912967         3.528347
 H         0.540586         2.264973         3.507551
 H         1.837954         3.824860         1.037790
 H         1.844830         1.944764         1.338644
 H         0.073990         2.883061        -0.601494
