19
Iteration:  3493
 O         0.155080         0.090646         0.811696
 C        -0.602844         1.259961         0.845768
 C        -2.069659         1.199609         0.430833
 C        -1.735480         1.768897         1.743160
 C        -1.122552         3.191288         1.512634
 O        -0.531015         3.884927         2.645150
 C         0.697513         3.201394         2.818434
 C         1.252222         2.855580         1.405859
 C        -0.047960         2.641775         0.623707
 H         0.970842         0.280694         1.249978
 H        -2.668642         1.606422        -0.390794
 H        -2.498841         0.272406         0.590424
 H        -1.976139         1.444365         2.669326
 H        -1.797589         3.993233         1.232394
 H         1.433826         3.812899         3.313969
 H         0.479811         2.245909         3.393274
 H         1.848055         3.587594         0.877352
 H         2.010413         2.038732         1.355930
 H         0.007252         3.153067        -0.364867
