19
Iteration:  2415
 O         0.239610         0.080772         0.872538
 C        -0.635351         1.260519         0.864822
 C        -2.063087         1.206932         0.497516
 C        -1.714394         1.854528         1.797500
 C        -1.179990         3.242647         1.507224
 O        -0.557189         3.841845         2.606419
 C         0.724308         3.125659         2.733540
 C         1.195456         2.899034         1.346518
 C        -0.009860         2.632747         0.560304
 H         0.344965        -0.235550         1.799802
 H        -2.452461         1.794144        -0.300515
 H        -2.438792         0.272728         0.593549
 H        -1.990877         1.272938         2.757678
 H        -1.782561         4.105527         1.049955
 H         1.425366         3.725035         3.428129
 H         0.623479         2.171678         3.414522
 H         1.786989         3.734707         1.024021
 H         1.942741         2.110922         1.125878
 H         0.069184         3.089723        -0.447507
