19
Iteration:  2654
 O         0.170383        -0.002454         0.802715
 C        -0.637121         1.191705         0.775831
 C        -2.138570         1.293767         0.447583
 C        -1.576346         1.719759         1.824629
 C        -1.222203         3.188201         1.508980
 O        -0.580289         3.864930         2.561704
 C         0.779173         3.260968         2.825558
 C         1.300484         2.960909         1.474423
 C        -0.035163         2.615232         0.601248
 H         0.017798        -0.306856         1.721088
 H        -2.420968         2.224439        -0.264099
 H        -2.852961         0.516549         0.497840
 H        -1.873044         1.296773         2.781323
 H        -1.894641         3.878682         1.026147
 H         1.404518         3.988732         3.211099
 H         0.848484         2.383935         3.481225
 H         1.750975         3.818488         0.959293
 H         2.126546         2.185138         1.512687
 H         0.061663         2.909630        -0.460267
