19
Iteration:  1851charge 0 multiplicity 1
 O         0.202081         0.072641         1.028787
 C        -0.645896         1.273725         0.889348
 C        -2.040535         1.174684         0.396073
 C        -1.717591         1.837300         1.696347
 C        -1.177242         3.234598         1.528144
 O        -0.565237         3.787699         2.713852
 C         0.775206         3.183865         2.779699
 C         1.340441         2.948951         1.272386
 C        -0.066005         2.653907         0.563187
 H        -0.176638        -0.618412         0.535892
 H        -2.215829         1.697369        -0.538260
 H        -2.504987         0.298452         0.433459
 H        -2.206356         1.550740         2.659797
 H        -1.907240         4.000942         1.130550
 H         1.237766         3.961531         3.527338
 H         0.622549         2.132534         3.137047
 H         1.870181         3.826556         0.876020
 H         1.898997         2.078121         1.139156
 H        -0.169783         3.090124        -0.469416
