19
Iteration:  2712charge 0 multiplicity 1
 O         0.155944        -0.009686         0.985971
 C        -0.632269         1.263412         0.814475
 C        -2.022565         1.226710         0.360422
 C        -1.880734         1.817047         1.698788
 C        -1.132102         3.249144         1.548154
 O        -0.483905         3.737610         2.708155
 C         0.809278         3.217736         2.832987
 C         1.239225         2.960160         1.311626
 C        -0.060091         2.617002         0.575536
 H         1.061838         0.375449         0.977351
 H        -2.549145         1.749845        -0.448786
 H        -2.421537         0.114738         0.605746
 H        -2.539478         1.506386         2.539473
 H        -1.606650         4.200008         1.041221
 H         1.331031         4.201164         3.216861
 H         0.856582         2.414456         3.519767
 H         1.676729         3.918013         0.796016
 H         1.949141         2.097116         1.226518
 H        -0.109280         3.016205        -0.472753
