19
Iteration:   701
 O         0.245377         0.089579         1.087122
 C        -0.661945         1.214325         0.862340
 C        -2.095271         1.272416         0.382012
 C        -1.627121         1.841139         1.817262
 C        -1.209103         3.266867         1.540423
 O        -0.509327         3.889192         2.587289
 C         0.741068         3.129861         2.774955
 C         1.250804         2.828996         1.329978
 C        -0.076967         2.578839         0.491732
 H         0.364085        -0.189494         0.171611
 H        -2.327148         1.852669        -0.411046
 H        -2.772652         0.371761         0.543450
 H        -1.957299         1.643308         2.887532
 H        -1.950016         3.878480         1.005281
 H         1.451363         3.729142         3.452495
 H         0.361347         2.195514         3.246623
 H         1.606319         3.746728         0.974993
 H         2.032415         2.015094         1.268825
 H        -0.183887         2.975235        -0.501231
