19
Iteration:  3563
 O         0.071173         0.001770         0.840501
 C        -0.636733         1.282115         0.854169
 C        -2.094136         1.158841         0.430044
 C        -1.759956         1.813622         1.694450
 C        -1.143874         3.149363         1.484045
 O        -0.499836         3.759061         2.714083
 C         0.782279         3.285772         2.847419
 C         1.287672         3.019796         1.387207
 C         0.009332         2.681840         0.538234
 H         0.746700        -0.056529         1.485596
 H        -2.528033         1.666958        -0.412157
 H        -2.511729         0.112292         0.396228
 H        -2.063558         1.420750         2.740799
 H        -1.868007         4.002043         1.162417
 H         1.255472         4.092098         3.484512
 H         0.713883         2.302661         3.376310
 H         1.901601         3.881210         1.084257
 H         2.031520         2.322606         1.292826
 H         0.094130         2.848660        -0.509483
