19
Iteration:  4360charge 0 multiplicity 1
 O         0.077022         0.006606         0.836797
 C        -0.585077         1.220590         0.730128
 C        -2.026095         1.180590         0.431880
 C        -1.723147         1.827545         1.726280
 C        -1.166752         3.216249         1.497165
 O        -0.547925         3.727299         2.717438
 C         0.740022         3.308861         2.844851
 C         1.252184         2.960367         1.441562
 C        -0.014645         2.682937         0.570916
 H         0.796278         0.257549         1.512871
 H        -2.472947         1.799318        -0.317043
 H        -2.434026         0.101253         0.428380
 H        -1.978571         1.523554         2.707054
 H        -1.801164         3.984830         1.091094
 H         1.326734         3.968556         3.417095
 H         0.837711         2.361685         3.382572
 H         1.715432         3.757494         0.962676
 H         1.980111         2.090948         1.290165
 H         0.092726         3.105966        -0.453958
