19
Iteration:  1341charge 0 multiplicity 1
 O         0.208482         0.063169         1.159639
 C        -0.696930         1.220531         0.878019
 C        -2.064611         1.324205         0.316388
 C        -1.753861         1.751176         1.709192
 C        -1.151690         3.159158         1.571467
 O        -0.542937         3.771339         2.712173
 C         0.822351         3.257780         2.694685
 C         1.220090         2.990559         1.272723
 C        -0.036752         2.609499         0.549438
 H         0.516805        -0.303860         0.246264
 H        -2.280842         2.128550        -0.352276
 H        -2.690849         0.426735         0.369804
 H        -2.132018         1.332568         2.555436
 H        -1.898996         3.916567         1.176434
 H         1.483952         3.986910         3.276022
 H         0.762660         2.195916         3.194649
 H         1.906173         3.667206         0.643997
 H         1.900408         2.071967         1.354953
 H        -0.027744         2.935361        -0.496048
