19
Iteration:  3538charge 0 multiplicity 1
 O         0.108504        -0.004803         0.820389
 C        -0.606861         1.253307         0.778891
 C        -2.040442         1.221638         0.483261
 C        -1.592438         1.826223         1.773731
 C        -1.159355         3.204221         1.539761
 O        -0.574802         3.864917         2.659171
 C         0.718684         3.152143         2.764652
 C         1.191439         2.968634         1.366825
 C         0.015566         2.624675         0.652054
 H         0.543561        -0.203486         1.639619
 H        -2.369265         1.794570        -0.376090
 H        -2.594070         0.303406         0.423118
 H        -2.069199         1.382038         2.640055
 H        -1.723820         4.022302         0.957312
 H         1.191742         3.958946         3.411234
 H         0.547306         2.181479         3.293576
 H         1.737329         3.894709         1.046202
 H         2.052962         2.320323         1.168553
 H         0.075619         3.036798        -0.384320
