19
Iteration:  3119
 O         0.126453         0.076961         0.856397
 C        -0.566431         1.276755         0.798104
 C        -2.046688         1.237204         0.499881
 C        -1.723492         1.796907         1.812784
 C        -1.160338         3.201216         1.514790
 O        -0.480400         3.838341         2.590239
 C         0.683564         3.167375         2.775995
 C         1.240829         2.937392         1.442939
 C        -0.045494         2.637772         0.553397
 H         0.922888         0.061459         1.364741
 H        -2.454887         1.833649        -0.271233
 H        -2.556794         0.197105         0.413137
 H        -2.028375         1.071473         2.555217
 H        -1.823010         3.897828         1.025701
 H         1.151748         3.820239         3.483970
 H         0.433372         2.224424         3.377298
 H         1.821207         3.714852         1.066871
 H         1.842981         2.017115         1.327073
 H         0.023208         2.931907        -0.462234
