19
Iteration:  3054charge 0 multiplicity 1
 O         0.081849         0.072017         0.933866
 C        -0.654237         1.213767         0.851785
 C        -2.009835         1.275942         0.344348
 C        -1.765453         1.763592         1.766451
 C        -1.154471         3.220409         1.503429
 O        -0.584127         3.652142         2.732980
 C         0.835120         3.323368         2.734708
 C         1.378988         2.999618         1.298074
 C        -0.073825         2.623852         0.639741
 H         0.427410        -0.096244         1.828550
 H        -2.283753         1.922364        -0.430978
 H        -2.562066         0.240770         0.397198
 H        -2.584044         1.417835         2.461871
 H        -1.728204         3.922997         1.062038
 H         1.407240         4.136290         3.147507
 H         0.997425         2.363903         3.297587
 H         1.750393         3.848267         0.808419
 H         2.096668         2.142514         1.263976
 H         0.088367         2.928220        -0.360595
