19
Iteration:  2220charge 0 multiplicity 1
 O         0.207063         0.041665         1.046711
 C        -0.624270         1.176594         0.818626
 C        -2.012277         1.168178         0.336464
 C        -1.658042         1.839264         1.787414
 C        -1.187922         3.267130         1.583160
 O        -0.473522         3.854723         2.634682
 C         0.738193         3.108711         2.729918
 C         1.207234         3.002339         1.349792
 C        -0.102230         2.716381         0.606777
 H        -0.227511        -0.695626         0.545189
 H        -2.349099         1.758906        -0.540127
 H        -2.453696         0.097614         0.377244
 H        -2.138971         1.555529         2.679176
 H        -1.871722         3.954211         1.131827
 H         1.316639         3.777651         3.344403
 H         0.441112         2.138798         3.103094
 H         1.642400         3.975525         1.060480
 H         1.825929         2.131395         1.091561
 H         0.011923         3.090563        -0.425403
