19
Iteration:   492charge 0 multiplicity 1
 O         0.153447         0.125105         1.106634
 C        -0.666886         1.290168         0.892034
 C        -2.056922         1.202402         0.346890
 C        -1.701869         1.759444         1.778813
 C        -1.190587         3.308571         1.525443
 O        -0.400842         3.864804         2.549626
 C         0.745300         3.042075         2.772416
 C         1.183202         2.940417         1.350602
 C        -0.071553         2.582143         0.577963
 H         0.870112         0.086131         0.362958
 H        -2.372326         1.672252        -0.610143
 H        -2.459897         0.299776         0.468425
 H        -2.259310         1.272155         2.673511
 H        -1.874026         4.020581         1.018603
 H         1.367300         3.894664         3.280955
 H         0.669516         2.179729         3.442180
 H         1.534158         3.843760         0.936926
 H         2.015855         2.223281         1.262414
 H        -0.167065         2.635402        -0.450856
