19
Iteration:  1981
 O         0.105252         0.088164         0.936969
 C        -0.631304         1.261787         0.882548
 C        -2.049099         1.100139         0.504619
 C        -1.656621         1.874472         1.742451
 C        -1.138407         3.271609         1.475348
 O        -0.542251         3.817909         2.629572
 C         0.762453         3.132236         2.796823
 C         1.220148         2.941271         1.378579
 C         0.023531         2.644689         0.514543
 H        -0.088387        -0.329277         0.047646
 H        -2.343679         1.593847        -0.464020
 H        -2.409407         0.082502         0.837017
 H        -2.093405         1.643419         2.767867
 H        -1.959306         4.003000         1.167367
 H         1.426143         3.842875         3.359523
 H         0.486914         2.338529         3.470757
 H         1.628819         3.943686         1.090369
 H         2.117586         2.269316         1.502822
 H         0.112834         2.867263        -0.574973
