19
Iteration:  2550
 O         0.074913         0.077518         1.084796
 C        -0.646545         1.212904         0.784575
 C        -2.001305         1.207831         0.394982
 C        -1.717160         1.708852         1.808423
 C        -1.160985         3.168907         1.542777
 O        -0.502451         3.889682         2.649115
 C         0.806434         3.172231         2.713696
 C         1.233211         2.974994         1.346234
 C        -0.068809         2.713075         0.516231
 H         0.815800        -0.046189         0.525862
 H        -2.475724         1.805331        -0.323788
 H        -2.504434         0.188310         0.479732
 H        -2.083314         1.243362         2.674384
 H        -1.896600         3.911400         1.186763
 H         1.672947         3.771725         3.327157
 H         0.767105         2.119272         3.303840
 H         1.807876         3.849327         0.924356
 H         1.737704         2.054473         1.193619
 H        -0.090297         3.191112        -0.504136
