19
Iteration:  3058charge 0 multiplicity 1
 O         0.100911         0.065740         0.925022
 C        -0.673382         1.221070         0.882423
 C        -2.083478         1.224905         0.308415
 C        -1.771435         1.794666         1.761612
 C        -1.184760         3.212755         1.490314
 O        -0.560060         3.659095         2.734479
 C         0.852995         3.313647         2.756693
 C         1.404778         2.988191         1.317705
 C        -0.082253         2.626572         0.647877
 H         0.616035        -0.104594         1.733097
 H        -2.206241         2.005894        -0.480420
 H        -2.359304         0.260840         0.353071
 H        -2.461060         1.534011         2.513847
 H        -1.947594         3.980543         1.012367
 H         1.393537         4.198236         3.149008
 H         1.021858         2.454742         3.357625
 H         1.827303         3.925142         0.822164
 H         2.044115         2.109540         1.235888
 H         0.114186         2.913493        -0.420295
