19
Iteration:  2188charge 0 multiplicity 1
 O         0.177284         0.213016         1.088030
 C        -0.688796         1.276161         0.794885
 C        -2.090167         1.141248         0.446491
 C        -1.646318         1.824803         1.791486
 C        -1.164030         3.260404         1.472805
 O        -0.547604         3.710663         2.656304
 C         0.718387         3.108016         2.687683
 C         1.237939         2.957664         1.354052
 C         0.016386         2.644622         0.538711
 H         0.302616        -0.273734         0.289666
 H        -2.434236         1.812461        -0.340912
 H        -2.504885         0.078426         0.505181
 H        -1.822096         1.669553         2.804219
 H        -1.754855         4.083132         1.152892
 H         1.263006         3.644766         3.388252
 H         0.662531         2.137801         3.301537
 H         1.775593         3.898341         1.032868
 H         1.949711         2.126537         1.237875
 H         0.137571         2.956723        -0.501327
