19
Iteration:   116
 O         0.252070         0.118973         0.967614
 C        -0.631736         1.248840         0.848269
 C        -2.019137         1.116597         0.435233
 C        -1.728546         1.852192         1.782291
 C        -1.164989         3.256485         1.532080
 O        -0.484798         3.990447         2.555811
 C         0.665778         3.129130         2.806503
 C         1.277295         2.807418         1.365912
 C        -0.056447         2.674324         0.566371
 H        -0.199920        -0.671970         0.767482
 H        -2.468490         1.590559        -0.444545
 H        -2.553314         0.114697         0.595911
 H        -2.237581         1.379221         2.661801
 H        -1.945207         3.990741         1.166330
 H         1.398192         3.641268         3.442692
 H         0.326502         2.223879         3.371277
 H         1.799931         3.748340         0.960086
 H         1.746315         1.790353         1.449523
 H         0.015228         2.903021        -0.579275
