19
Iteration:  2150
 O         0.169629         0.092910         1.027243
 C        -0.663000         1.215165         0.833378
 C        -2.064230         1.080630         0.304022
 C        -1.737987         1.864299         1.794803
 C        -1.190821         3.299550         1.568947
 O        -0.458332         3.834414         2.677950
 C         0.779636         3.156497         2.766470
 C         1.211708         2.934954         1.318552
 C        -0.071680         2.627397         0.594636
 H         0.933191         0.193086         0.449442
 H        -2.264888         1.652325        -0.637953
 H        -2.568189         0.177467         0.374212
 H        -2.249816         1.425340         2.738990
 H        -2.004153         4.041145         1.247407
 H         1.609773         3.852807         3.179308
 H         0.735433         2.257831         3.207831
 H         1.629262         3.781674         0.817727
 H         1.950059         2.124025         1.449442
 H        -0.064003         2.980673        -0.463247
