19
Iteration:  2262
 O         0.215774         0.090697         0.936396
 C        -0.652790         1.215301         0.835862
 C        -2.067064         1.212604         0.427573
 C        -1.770940         1.830715         1.735311
 C        -1.154070         3.188759         1.464085
 O        -0.552887         3.718444         2.642159
 C         0.790520         3.305031         2.765029
 C         1.277131         2.946893         1.389053
 C        -0.021145         2.625405         0.661484
 H        -0.129728        -0.763915         0.492983
 H        -2.320149         1.965233        -0.272427
 H        -2.754651         0.289304         0.475165
 H        -2.166757         1.547417         2.660031
 H        -1.828871         4.013875         1.188879
 H         1.432824         4.217973         3.210613
 H         0.922514         2.478592         3.424577
 H         1.655409         3.763351         0.874417
 H         2.069207         2.161751         1.551264
 H        -0.049328         2.946423        -0.395032
