19
Iteration:  2000
 O         0.204389         0.128393         0.967765
 C        -0.660993         1.251650         0.780790
 C        -2.034165         1.141936         0.496320
 C        -1.709966         1.831650         1.765642
 C        -1.209232         3.279908         1.493052
 O        -0.520882         3.868684         2.625140
 C         0.703364         3.168160         2.808885
 C         1.280117         2.844121         1.352799
 C        -0.012882         2.692220         0.560837
 H        -0.089464        -0.602862         0.414111
 H        -2.702312         1.684571        -0.259790
 H        -2.302192         0.143846         0.671576
 H        -1.968309         1.368148         2.762967
 H        -1.858487         4.029413         1.069931
 H         1.292963         3.718510         3.425746
 H         0.702757         2.196613         3.308601
 H         1.930455         3.596590         0.940486
 H         1.858302         1.837761         1.326103
 H         0.180424         3.035341        -0.437879
