19
Iteration:  4723
 O         0.066109         0.034358         0.973219
 C        -0.653534         1.196960         0.814639
 C        -2.000799         1.264509         0.298197
 C        -1.671254         1.774180         1.708978
 C        -1.247548         3.159107         1.508003
 O        -0.533847         3.790168         2.670764
 C         0.788161         3.153196         2.807191
 C         1.289498         3.043795         1.373259
 C        -0.037776         2.668012         0.692588
 H         0.982737         0.059365         1.202047
 H        -2.319970         1.878113        -0.535836
 H        -2.522029         0.331245         0.077668
 H        -2.082234         1.524381         2.706578
 H        -1.874726         3.933140         1.034452
 H         1.368037         3.876698         3.435239
 H         0.811824         2.168760         3.321946
 H         1.740559         3.970495         0.954682
 H         2.149323         2.267056         1.266369
 H        -0.125397         3.140485        -0.391090
