19
Iteration:  2353charge 0 multiplicity 1
 O         0.124107        -0.033600         0.828059
 C        -0.618113         1.154170         0.858236
 C        -2.045036         1.273721         0.441418
 C        -1.640837         1.784719         1.847898
 C        -1.171487         3.212710         1.508727
 O        -0.576618         3.893689         2.566345
 C         0.761759         3.314955         2.858509
 C         1.266568         2.895211         1.401412
 C        -0.055858         2.570885         0.603802
 H         0.878777         0.338181         0.318558
 H        -2.511969         1.954671        -0.459727
 H        -2.506020         0.287332         0.487715
 H        -2.057433         1.461953         2.851937
 H        -2.073094         3.761964         1.172171
 H         1.393965         4.168984         3.402772
 H         0.670869         2.392954         3.491726
 H         1.864418         3.780159         0.916819
 H         1.809049         1.954068         1.465985
 H         0.057414         3.121151        -0.393380
