19
Iteration:  2022
 O         0.301666         0.210883         0.989214
 C        -0.624057         1.218363         0.813654
 C        -2.211514         1.199967         0.432951
 C        -1.614598         1.786874         1.732914
 C        -1.186774         3.198804         1.577255
 O        -0.483493         3.906892         2.563157
 C         0.730391         3.172602         2.829455
 C         1.202783         2.827725         1.419010
 C        -0.071473         2.605115         0.537035
 H        -0.081513        -0.584710         0.525922
 H        -2.452764         1.905399        -0.455245
 H        -2.881502         0.384830         0.450950
 H        -2.044080         1.404849         2.740166
 H        -1.797496         3.905158         1.080448
 H         1.373457         3.741810         3.352866
 H         0.776215         2.218643         3.410536
 H         1.788400         3.631194         1.015331
 H         1.819014         1.869680         1.206659
 H        -0.026415         3.000741        -0.462707
