19
Iteration:   531
 O         0.133124         0.063397         1.066549
 C        -0.607551         1.220449         0.877569
 C        -2.119817         1.244777         0.410041
 C        -1.697773         1.796915         1.735355
 C        -1.169432         3.247668         1.494711
 O        -0.559313         3.802230         2.634422
 C         0.755322         3.240886         2.730526
 C         1.307634         2.907527         1.313957
 C        -0.027912         2.642625         0.586624
 H         0.513100        -0.296373         0.295588
 H        -2.592924         1.748760        -0.487999
 H        -2.579656         0.228411         0.689996
 H        -1.981253         1.431586         2.791176
 H        -1.845750         4.024072         1.113491
 H         1.442907         3.792684         3.322852
 H         0.709556         2.303038         3.338715
 H         1.961657         3.812254         0.953478
 H         1.948964         1.996583         1.329010
 H         0.205124         2.966703        -0.534514
