19
Iteration:  4543charge 0 multiplicity 1
 O         0.085409         0.040416         0.860823
 C        -0.665080         1.270522         0.744001
 C        -2.009095         1.171161         0.382266
 C        -1.689538         1.720789         1.780153
 C        -1.173029         3.237165         1.526844
 O        -0.606769         3.815871         2.694685
 C         0.808291         3.229701         2.856007
 C         1.319847         2.981763         1.408923
 C         0.019496         2.657004         0.537005
 H         0.465598         0.014357         1.712344
 H        -2.424760         1.854288        -0.422004
 H        -2.518999         0.096766         0.246886
 H        -2.117739         1.297502         2.631169
 H        -1.996621         3.919390         1.168193
 H         1.446536         3.950007         3.446919
 H         0.649697         2.351285         3.465112
 H         1.754948         3.850613         0.857677
 H         2.049422         2.235548         1.518334
 H        -0.046407         2.976373        -0.533605
