19
Iteration:  1466
 O         0.275422         0.202974         0.887152
 C        -0.705520         1.246906         0.768257
 C        -2.104785         1.078991         0.443123
 C        -1.714660         1.767096         1.826414
 C        -1.128075         3.313159         1.467725
 O        -0.478884         3.900497         2.575582
 C         0.758426         3.217385         2.857696
 C         1.186909         2.808025         1.454320
 C        -0.053959         2.613460         0.546249
 H        -0.126322        -0.717599         1.134999
 H        -2.536076         1.787221        -0.280722
 H        -2.399384         0.123033         0.534600
 H        -1.984714         1.540636         2.872935
 H        -1.917794         4.022168         1.111523
 H         1.407069         3.842480         3.414000
 H         0.622444         2.132455         3.434303
 H         1.729006         3.657283         0.995033
 H         1.905228         1.935249         1.356419
 H        -0.044499         2.957825        -0.541643
