19
Iteration:  2521
 O         0.154433         0.049359         1.109315
 C        -0.665084         1.148868         0.910033
 C        -2.033160         1.221200         0.334631
 C        -1.793599         1.852442         1.729117
 C        -1.150505         3.174787         1.525516
 O        -0.484899         3.757015         2.686679
 C         0.861874         3.197115         2.745899
 C         1.240412         3.126025         1.289717
 C        -0.042041         2.599545         0.548924
 H         0.028676        -0.366864         0.231354
 H        -2.351482         1.760098        -0.613500
 H        -2.713323         0.270709         0.527557
 H        -2.292232         1.522258         2.715836
 H        -1.803836         3.992388         1.257174
 H         1.434563         3.855951         3.284467
 H         0.875319         2.281510         3.204532
 H         1.426476         4.105669         0.879076
 H         2.087623         2.388364         1.095926
 H        -0.160504         2.910159        -0.505049
