19
Iteration:  1006charge 0 multiplicity 1
 O         0.071180         0.023840         1.146535
 C        -0.665608         1.218510         0.804388
 C        -2.062517         1.246352         0.334881
 C        -1.773302         1.763111         1.705130
 C        -1.176835         3.218450         1.549371
 O        -0.536614         3.691291         2.710540
 C         0.865756         3.347396         2.679266
 C         1.326091         2.975223         1.313283
 C        -0.011302         2.673805         0.622554
 H         0.147754        -0.480280         0.273209
 H        -2.311888         1.960556        -0.508314
 H        -2.448684         0.282155         0.190879
 H        -2.004531         1.458590         2.766641
 H        -1.974360         3.852719         1.194062
 H         1.338925         4.309475         2.979984
 H         1.191932         2.520553         3.394861
 H         1.773963         3.810796         0.779442
 H         1.943922         1.986077         1.325443
 H         0.011088         3.003865        -0.395131
