19
Iteration:  1995charge 0 multiplicity 1
 O         0.161151         0.136509         0.958178
 C        -0.574003         1.285635         0.782877
 C        -2.040613         1.128076         0.496936
 C        -1.697064         1.866718         1.760838
 C        -1.236469         3.288931         1.532523
 O        -0.530491         3.858082         2.616511
 C         0.710007         3.164153         2.811805
 C         1.272414         2.854102         1.381803
 C        -0.006466         2.619889         0.554769
 H        -0.121281        -0.548456         0.326764
 H        -2.644817         1.516145        -0.257383
 H        -2.390945         0.038085         0.629300
 H        -1.925790         1.484955         2.708221
 H        -1.836110         4.085318         1.008040
 H         1.393447         3.862621         3.535818
 H         0.761089         2.091723         3.242854
 H         1.883367         3.656362         0.886287
 H         1.763992         1.954651         1.208191
 H         0.147310         2.931489        -0.530486
