19
Iteration:  1010charge 0 multiplicity 1
 O         0.102486         0.032020         1.142080
 C        -0.669810         1.215127         0.795009
 C        -2.052152         1.264445         0.345543
 C        -1.775724         1.766219         1.716406
 C        -1.176358         3.204493         1.542798
 O        -0.539903         3.680943         2.709698
 C         0.864880         3.346850         2.667142
 C         1.300001         2.950280         1.297940
 C        -0.022113         2.692190         0.633136
 H         0.136501        -0.555533         0.412466
 H        -2.230628         1.944531        -0.389078
 H        -2.593474         0.236106         0.242767
 H        -2.124224         1.563962         2.673409
 H        -1.921140         3.921794         1.179480
 H         1.429743         4.222991         3.099331
 H         0.985331         2.554066         3.458228
 H         1.905523         3.768362         0.860410
 H         1.969689         2.121229         1.175174
 H         0.065960         3.000059        -0.497164
