19
Iteration:   244charge 0 multiplicity 1
 O         0.073735         0.042555         1.098625
 C        -0.607473         1.161143         0.877305
 C        -2.107047         1.192163         0.361299
 C        -1.784468         1.846381         1.759685
 C        -1.190376         3.205941         1.461547
 O        -0.568599         3.701812         2.691146
 C         0.879143         3.357173         2.743469
 C         1.371858         3.056407         1.361438
 C         0.044894         2.612346         0.517802
 H         0.208938        -0.644905         0.331045
 H        -2.425036         1.865403        -0.512238
 H        -2.650116         0.225619         0.563002
 H        -2.524271         1.727326         2.641408
 H        -1.735191         4.160778         1.155945
 H         1.329795         4.108380         3.377018
 H         0.770080         2.314444         3.209733
 H         1.894268         3.871443         0.685899
 H         1.951617         2.011542         1.322358
 H         0.072960         2.734957        -0.582645
