19
Iteration:     3charge 0 multiplicity 1
 O         0.123837         0.086317         1.079265
 C        -0.629024         1.227660         0.833441
 C        -2.052629         1.178274         0.401313
 C        -1.704150         1.820214         1.741564
 C        -1.146872         3.214846         1.493224
 O        -0.531031         3.832964         2.606108
 C         0.745285         3.217386         2.784760
 C         1.253198         2.926928         1.376113
 C        -0.024213         2.634590         0.602346
 H         0.315392        -0.344321         0.188059
 H        -2.362678         1.865783        -0.456562
 H        -2.571371         0.271912         0.432124
 H        -2.104600         1.456540         2.620539
 H        -1.781545         3.966403         0.954382
 H         1.397464         3.881014         3.283320
 H         0.684844         2.225904         3.325055
 H         1.811880         3.812480         0.912829
 H         1.978095         2.068319         1.324280
 H         0.099355         2.916590        -0.525337
