19
Iteration:  3587charge 0 multiplicity 1
 O         0.088963         0.040672         0.905954
 C        -0.676906         1.223703         0.790189
 C        -2.004536         1.197569         0.322208
 C        -1.759920         1.804663         1.715822
 C        -1.172946         3.229305         1.526321
 O        -0.545443         3.749748         2.744534
 C         0.881853         3.304459         2.784636
 C         1.295964         2.927100         1.366083
 C        -0.086012         2.606752         0.653699
 H         0.932973         0.331728         1.376596
 H        -2.480991         1.787732        -0.518476
 H        -2.481235         0.265750         0.376447
 H        -2.265712         1.455193         2.583716
 H        -1.940588         3.943011         1.194138
 H         1.416262         4.097277         3.239254
 H         0.788370         2.390949         3.393194
 H         1.651832         3.842022         0.952308
 H         2.210358         2.356181         1.304148
 H        -0.009926         2.818611        -0.409440
