19
Iteration:  2277
 O         0.170282         0.067740         0.941825
 C        -0.594790         1.223233         0.832615
 C        -2.110995         1.195585         0.398896
 C        -1.651506         1.841185         1.752237
 C        -1.164327         3.250256         1.533992
 O        -0.614985         3.711553         2.735622
 C         0.802496         3.403393         2.812426
 C         1.269927         2.911827         1.374107
 C        -0.030626         2.594957         0.491961
 H        -0.324649        -0.612342         0.473688
 H        -2.493138         1.694096        -0.615136
 H        -2.625045         0.269242         0.497964
 H        -2.055468         1.356185         2.707379
 H        -1.776741         3.899725         0.952915
 H         1.321823         4.201430         3.275731
 H         1.043462         2.652079         3.659634
 H         2.097736         3.617383         0.937659
 H         1.768477         1.973032         1.300288
 H         0.169356         2.902266        -0.570351
