19
Iteration:  3169charge 0 multiplicity 1
 O         0.123095         0.001065         0.753479
 C        -0.607138         1.225433         0.743429
 C        -2.033208         1.147171         0.456781
 C        -1.682170         1.871397         1.806984
 C        -1.122556         3.187961         1.516490
 O        -0.561569         3.869609         2.619699
 C         0.756473         3.216035         2.844715
 C         1.236847         2.927801         1.440917
 C        -0.013450         2.657801         0.622636
 H         0.485708        -0.018792         1.672772
 H        -2.662983         1.737141        -0.230148
 H        -2.352784         0.054513         0.570944
 H        -2.206726         1.707181         2.808471
 H        -1.904412         3.883732         1.008609
 H         1.238112         3.988642         3.506153
 H         0.430022         2.341617         3.413881
 H         1.756527         3.821775         0.893602
 H         1.932022         2.065986         1.405444
 H         0.137243         3.147142        -0.409012
