19
Iteration:   202charge 0 multiplicity 1
 O         0.139481         0.123253         1.150681
 C        -0.681191         1.184026         0.891336
 C        -1.974960         1.156236         0.260743
 C        -1.761093         1.808102         1.691427
 C        -1.208545         3.214056         1.532442
 O        -0.433493         3.825618         2.713216
 C         0.851317         3.199611         2.795538
 C         1.247805         3.002439         1.225868
 C        -0.074635         2.624788         0.559052
 H        -0.519295        -0.589985         1.106838
 H        -2.102473         1.928931        -0.553049
 H        -2.510484         0.184824         0.273754
 H        -2.510859         1.560219         2.424698
 H        -2.044038         3.883302         1.161744
 H         1.521397         3.896188         3.243923
 H         0.864310         2.199863         3.312574
 H         1.518931         4.035997         0.833076
 H         2.000992         2.149577         1.225567
 H        -0.037097         2.767157        -0.511143
