19
Iteration:   543
 O         0.089194         0.100818         1.072438
 C        -0.628548         1.292212         0.809038
 C        -2.079101         1.178138         0.486105
 C        -1.657144         1.873065         1.737690
 C        -1.162839         3.202836         1.436327
 O        -0.598343         3.733672         2.633359
 C         0.833352         3.241544         2.778051
 C         1.271536         2.881768         1.387881
 C         0.050928         2.617278         0.554916
 H         0.029721        -0.274347         0.147415
 H        -2.513123         1.975448        -0.240842
 H        -2.519033         0.192492         0.448557
 H        -1.979620         1.490433         2.818865
 H        -1.948461         3.833354         0.988129
 H         1.272181         4.175816         3.103371
 H         0.809165         2.380104         3.471828
 H         1.646746         3.849978         0.820228
 H         2.026764         2.103231         1.256251
 H         0.037454         2.942343        -0.569863
