19
Iteration:  2911
 O         0.114736        -0.042290         0.791661
 C        -0.547807         1.227280         0.752612
 C        -2.005863         1.214396         0.498650
 C        -1.669636         1.783828         1.796460
 C        -1.190979         3.271803         1.559908
 O        -0.551501         3.901114         2.603070
 C         0.710976         3.182974         2.824597
 C         1.198928         2.951024         1.401963
 C        -0.005692         2.642410         0.559321
 H         0.598313        -0.173554         1.653253
 H        -2.482819         2.014775        -0.111237
 H        -2.536918         0.272473         0.434776
 H        -2.114423         1.575034         2.783110
 H        -1.947486         3.990555         1.160131
 H         1.309593         3.878856         3.479951
 H         0.682962         2.243929         3.365004
 H         1.874851         3.780734         1.081782
 H         1.874083         2.054960         1.424562
 H         0.102123         2.801249        -0.514680
