19
Iteration:  2362charge 0 multiplicity 1
 O         0.090496        -0.023601         0.816120
 C        -0.618025         1.235022         0.862303
 C        -2.080954         1.173205         0.472541
 C        -1.616610         1.777416         1.831510
 C        -1.209418         3.142448         1.495832
 O        -0.500421         3.906470         2.595401
 C         0.694754         3.287924         2.827845
 C         1.265808         2.940900         1.448417
 C        -0.015574         2.630001         0.543202
 H         0.989235         0.027433         0.444992
 H        -2.477029         1.994334        -0.193016
 H        -2.516813         0.227041         0.474996
 H        -2.224198         1.574761         2.778288
 H        -1.840306         3.969955         1.107616
 H         1.388860         4.071637         3.424932
 H         0.573584         2.422616         3.377583
 H         1.872769         3.825713         1.110415
 H         1.943336         2.059042         1.485856
 H         0.058289         2.919101        -0.571796
