19
Iteration:  1469
 O         0.273909         0.221708         0.882022
 C        -0.727358         1.252868         0.786864
 C        -2.095701         1.086051         0.449625
 C        -1.695816         1.781623         1.838583
 C        -1.116481         3.312842         1.462464
 O        -0.513226         3.868960         2.589989
 C         0.756556         3.205348         2.829037
 C         1.216183         2.796052         1.448472
 C        -0.056124         2.595241         0.532921
 H        -0.098751        -0.614336         1.133643
 H        -2.446745         1.787566        -0.358084
 H        -2.550185         0.022415         0.521957
 H        -1.916388         1.609671         2.832059
 H        -1.734649         4.074194         1.055634
 H         1.413912         3.952747         3.453025
 H         0.659637         2.229120         3.489213
 H         1.676723         3.734127         1.049397
 H         1.782213         1.950934         1.413942
 H        -0.073131         2.916253        -0.518104
