19
Iteration:   653charge 0 multiplicity 1
 O         0.135714         0.146107         0.940561
 C        -0.657741         1.233294         0.786391
 C        -2.092393         1.024554         0.544819
 C        -1.582031         1.902588         1.721973
 C        -1.159293         3.343411         1.414161
 O        -0.510022         3.850468         2.601304
 C         0.749489         3.156835         2.819681
 C         1.240804         2.867752         1.447841
 C        -0.015049         2.648704         0.567896
 H        -0.269186        -0.664644         0.602235
 H        -2.575868         1.493534        -0.406226
 H        -2.571112         0.169042         0.928170
 H        -2.033665         1.557038         2.635122
 H        -1.924007         4.025857         1.055513
 H         1.419893         3.826050         3.395849
 H         0.544836         2.248427         3.433581
 H         1.799904         3.840761         1.201306
 H         1.863714         2.011248         1.241004
 H         0.187564         2.895927        -0.584036
