19
Iteration:  4737charge 0 multiplicity 1
 O         0.061020         0.051186         0.945965
 C        -0.581654         1.282979         0.790367
 C        -2.058788         1.166267         0.302138
 C        -1.745904         1.777827         1.730848
 C        -1.097456         3.235220         1.558714
 O        -0.542868         3.768385         2.675455
 C         0.762734         3.177735         2.839475
 C         1.231212         2.984350         1.391146
 C         0.003671         2.645510         0.564571
 H         0.883561         0.356079         1.388428
 H        -2.322511         1.941802        -0.377036
 H        -2.539718         0.132066         0.389221
 H        -2.156453         1.271742         2.543211
 H        -1.843410         3.968759         1.198006
 H         1.435974         3.888591         3.503952
 H         0.564562         2.215939         3.363059
 H         1.464474         4.088811         1.038376
 H         2.169659         2.281818         1.186870
 H         0.135107         2.962099        -0.498869
