19
Iteration:  2904charge 0 multiplicity 1
 O         0.111256        -0.055133         0.765659
 C        -0.572755         1.212708         0.831241
 C        -2.029775         1.242243         0.500366
 C        -1.635005         1.794572         1.788669
 C        -1.190891         3.250491         1.517693
 O        -0.592872         3.898584         2.646050
 C         0.705599         3.217875         2.796666
 C         1.248083         2.952697         1.398674
 C         0.024562         2.632583         0.563428
 H         0.543519        -0.182445         1.610534
 H        -2.272426         1.959109        -0.223412
 H        -2.781200         0.366137         0.395624
 H        -1.967639         1.561451         2.850168
 H        -2.127615         3.827380         1.136078
 H         1.381166         3.812694         3.354175
 H         0.639367         2.226288         3.334002
 H         1.811483         3.821083         1.154235
 H         1.962009         2.108564         1.331501
 H         0.169901         2.831805        -0.494185
