19
Iteration:  1866
 O         0.226280         0.155681         1.037636
 C        -0.600042         1.211662         0.820366
 C        -2.080254         1.206566         0.385587
 C        -1.806732         1.883804         1.742885
 C        -1.203348         3.263950         1.500577
 O        -0.537803         3.642177         2.652252
 C         0.804204         3.225863         2.784101
 C         1.237574         2.929121         1.347765
 C        -0.005261         2.653490         0.571501
 H        -0.037449        -0.565614         0.406458
 H        -2.551740         1.840420        -0.354611
 H        -2.580165         0.165105         0.666403
 H        -2.343235         1.528654         2.632827
 H        -1.842935         4.060189         1.137003
 H         1.527696         3.985919         3.107679
 H         0.993666         2.434855         3.507049
 H         1.764054         3.858391         0.906991
 H         2.010713         2.116720         1.429121
 H         0.145026         2.781669        -0.498852
