19
Iteration:  2380
 O         0.024925         0.007564         0.831428
 C        -0.624018         1.243869         0.750363
 C        -2.069789         1.133472         0.523347
 C        -1.666799         1.776579         1.809900
 C        -1.100610         3.262775         1.494870
 O        -0.565169         3.938728         2.574334
 C         0.718271         3.182036         2.844526
 C         1.281536         2.983762         1.396505
 C         0.033224         2.593463         0.614244
 H         0.961650         0.211567         0.930393
 H        -2.614371         1.549134        -0.245305
 H        -2.297386         0.064755         0.734653
 H        -1.710657         1.264082         2.772180
 H        -1.879924         3.926957         1.033894
 H         1.300890         3.796008         3.425928
 H         0.420618         2.117830         3.288012
 H         1.552039         3.948484         1.083467
 H         2.075654         2.209930         1.375936
 H         0.218538         3.126753        -0.297158
