19
Iteration:  4233
 O         0.209695         0.081484         0.864843
 C        -0.602936         1.206192         0.788155
 C        -2.046251         1.208911         0.400375
 C        -1.850449         1.809272         1.779246
 C        -1.112938         3.235743         1.550662
 O        -0.489044         3.847804         2.700271
 C         0.701283         3.153315         2.852805
 C         1.200419         2.945519         1.344728
 C        -0.044476         2.635841         0.584910
 H         0.980982         0.304360         1.371592
 H        -2.470610         1.671957        -0.436888
 H        -2.593560         0.175893         0.347867
 H        -2.206107         1.452743         2.664491
 H        -1.845852         3.864190         1.040132
 H         1.549250         3.727239         3.350355
 H         0.587080         2.115415         3.205887
 H         1.640606         4.011458         0.892378
 H         1.940353         2.107161         1.181411
 H         0.202148         2.830536        -0.461351
