19
Iteration:  4722charge 0 multiplicity 1
 O         0.066134         0.028112         0.972860
 C        -0.645601         1.190184         0.819983
 C        -1.999949         1.274792         0.296670
 C        -1.678163         1.766264         1.707896
 C        -1.249821         3.160762         1.500553
 O        -0.531053         3.792979         2.677052
 C         0.789139         3.155383         2.803261
 C         1.296872         3.049317         1.376742
 C        -0.040360         2.666766         0.686579
 H         0.964404         0.092437         1.188110
 H        -2.310882         1.899015        -0.562159
 H        -2.488495         0.349768         0.129416
 H        -2.094904         1.504938         2.737376
 H        -1.881865         3.944181         1.056665
 H         1.316193         3.861809         3.399458
 H         0.822774         2.171798         3.303803
 H         1.743497         3.922622         0.975984
 H         2.091559         2.285258         1.267140
 H        -0.142858         3.128227        -0.384739
