19
Iteration:  3037charge 0 multiplicity 1
 O         0.074438        -0.023359         0.988973
 C        -0.578536         1.249860         0.831724
 C        -2.050381         1.274973         0.295079
 C        -1.739701         1.834957         1.685162
 C        -1.159749         3.141792         1.615624
 O        -0.510381         3.714655         2.738542
 C         0.818271         3.279978         2.761879
 C         1.187019         3.052602         1.292320
 C         0.014378         2.583234         0.552372
 H         0.125257        -0.219258         1.928158
 H        -2.222250         2.118635        -0.477413
 H        -2.442017         0.331812         0.267314
 H        -1.902878         1.458756         2.650580
 H        -1.971835         3.953741         1.195144
 H         1.404910         4.105663         3.247172
 H         0.931218         2.368546         3.361892
 H         1.593579         4.022868         0.830540
 H         1.955120         2.279532         1.265599
 H        -0.140227         2.965820        -0.512687
