19
Iteration:  4190charge 0 multiplicity 1
 O         0.085767         0.019687         0.917360
 C        -0.561559         1.279270         0.800588
 C        -2.026211         1.202958         0.414379
 C        -1.717743         1.798610         1.700713
 C        -1.155661         3.193816         1.535074
 O        -0.543594         3.782801         2.767475
 C         0.759001         3.178169         2.786065
 C         1.242748         2.981148         1.305753
 C        -0.024160         2.648774         0.536555
 H         0.756335         0.106741         1.646599
 H        -2.477465         1.817421        -0.251400
 H        -2.424059         0.173319         0.178787
 H        -2.114766         1.461859         2.586094
 H        -1.811109         4.022042         1.135649
 H         1.354595         3.884396         3.452472
 H         0.563567         2.273919         3.287852
 H         1.629896         4.077862         1.005385
 H         2.065018         2.208811         1.315376
 H        -0.163049         3.199275        -0.458865
