19
Iteration:   352
 O         0.183618         0.035216         0.937486
 C        -0.665021         1.199982         0.751644
 C        -2.155030         1.083628         0.543934
 C        -1.721381         1.856244         1.738156
 C        -1.080781         3.295150         1.455177
 O        -0.612003         3.939669         2.616570
 C         0.763312         3.200070         2.810021
 C         1.370417         2.923567         1.467385
 C         0.029544         2.691430         0.567059
 H        -0.214057        -0.821705         0.599428
 H        -2.849048         1.493064        -0.292563
 H        -2.481998         0.127890         0.737530
 H        -2.173931         1.518560         2.698486
 H        -1.839453         3.875134         0.927453
 H         1.421021         3.870631         3.418957
 H         0.684299         2.178934         3.220547
 H         2.007822         3.587360         0.894722
 H         1.954053         1.988993         1.275495
 H         0.109253         3.059621        -0.535874
