19
Iteration:  3290charge 0 multiplicity 1
 O         0.130590         0.050690         0.907098
 C        -0.625759         1.178288         0.763517
 C        -2.043399         1.222437         0.425670
 C        -1.674663         1.808480         1.716522
 C        -1.111437         3.168948         1.496896
 O        -0.547341         3.867733         2.724541
 C         0.732665         3.135011         2.787907
 C         1.257097         3.022278         1.358124
 C        -0.011178         2.644603         0.577922
 H         0.285226        -0.113442         1.862298
 H        -2.445609         1.943510        -0.325454
 H        -2.538340         0.234536         0.462293
 H        -2.097449         1.436852         2.588844
 H        -1.785621         3.872678         1.171633
 H         1.359877         3.785298         3.465450
 H         0.482666         2.101031         3.238238
 H         1.513366         4.095259         1.013417
 H         2.089943         2.323479         1.191861
 H        -0.219444         2.929949        -0.491391
