19
Iteration:  2496
 O         0.149857         0.088517         1.066785
 C        -0.623037         1.228127         0.929583
 C        -2.026280         1.213043         0.393143
 C        -1.790688         1.896769         1.710935
 C        -1.191659         3.246192         1.471632
 O        -0.543406         3.586410         2.717336
 C         0.847006         3.231227         2.701182
 C         1.296088         3.074285         1.251281
 C        -0.000304         2.596975         0.601527
 H        -0.522716        -0.560114         0.920860
 H        -2.495700         1.745108        -0.450259
 H        -2.339626         0.097713         0.372755
 H        -2.132829         1.643988         2.658544
 H        -1.768785         4.109657         1.215487
 H         1.379420         4.104069         3.261852
 H         0.934051         2.309810         3.241991
 H         1.455370         4.062298         0.747703
 H         2.084596         2.387112         1.032163
 H        -0.172093         2.921470        -0.442675
