19
Iteration:   908
 O         0.175844         0.040820         0.937771
 C        -0.678496         1.221316         0.754586
 C        -2.160621         1.087563         0.471165
 C        -1.595483         1.799426         1.777619
 C        -1.197927         3.219088         1.524048
 O        -0.456273         4.005359         2.625613
 C         0.744358         3.223168         2.816471
 C         1.271938         2.899553         1.409332
 C        -0.022596         2.691771         0.541662
 H        -0.162633        -0.731454         0.383045
 H        -2.487247         1.734379        -0.369004
 H        -2.537817         0.131560         0.548426
 H        -2.114242         1.482253         2.768464
 H        -1.962328         3.770185         1.046949
 H         1.499579         3.805486         3.406291
 H         0.430866         2.324658         3.364546
 H         2.032724         3.554253         1.061506
 H         1.656453         1.835088         1.573183
 H         0.057610         3.129536        -0.528605
