19
Iteration:  1167charge 0 multiplicity 1
 O         0.124861        -0.076270         0.878664
 C        -0.642200         1.189958         0.836999
 C        -2.102502         1.287443         0.441910
 C        -1.709458         1.756569         1.744618
 C        -1.203307         3.144007         1.469333
 O        -0.590367         3.835037         2.691174
 C         0.884560         3.452990         2.824403
 C         1.316827         2.953761         1.403082
 C         0.023767         2.590009         0.618435
 H        -0.143040        -0.764619         0.291334
 H        -2.383037         2.090430        -0.338941
 H        -2.555343         0.331183         0.362533
 H        -2.080231         1.340978         2.646456
 H        -1.992750         3.854969         1.033905
 H         1.293928         4.403334         3.142239
 H         1.018331         2.699416         3.701311
 H         1.796905         3.790368         0.858692
 H         1.903189         2.010975         1.402499
 H         0.031965         3.066429        -0.470731
