19
Iteration:   386
 O         0.180098         0.090885         0.991612
 C        -0.604830         1.189048         0.877447
 C        -2.011538         1.284390         0.404098
 C        -1.682653         1.779623         1.773508
 C        -1.129915         3.257717         1.516781
 O        -0.577803         3.868655         2.580558
 C         0.813597         3.210757         2.775227
 C         1.198194         2.850696         1.354969
 C        -0.063735         2.595078         0.611701
 H        -0.229684        -0.826689         0.862718
 H        -2.353898         2.032875        -0.394335
 H        -2.501715         0.356715         0.510617
 H        -2.266769         1.553872         2.608897
 H        -1.843602         3.900287         0.987497
 H         1.488199         3.957793         3.175823
 H         0.605928         2.377954         3.502383
 H         1.469933         3.878418         1.017931
 H         2.017190         2.100927         1.140470
 H         0.006816         2.776092        -0.521249
