19
Iteration:   222charge 0 multiplicity 1
 O         0.169069         0.050730         1.142010
 C        -0.667858         1.198618         0.904894
 C        -2.036533         1.273562         0.274259
 C        -1.819090         1.860138         1.687623
 C        -1.138295         3.233363         1.550656
 O        -0.506906         3.720922         2.645659
 C         0.869765         3.273197         2.731982
 C         1.196830         2.980779         1.289682
 C        -0.009527         2.560187         0.647110
 H        -0.235833        -0.684206         0.734397
 H        -2.170279         1.895787        -0.647174
 H        -2.551957         0.265507         0.405118
 H        -2.120505         1.296740         2.657771
 H        -1.636117         4.053736         0.925185
 H         1.490092         4.109742         3.044886
 H         0.872220         2.363326         3.429622
 H         1.272051         4.023851         0.767500
 H         2.161270         2.309233         1.239197
 H        -0.163304         2.924382        -0.375228
