19
Iteration:  1286charge 0 multiplicity 1
 O         0.210667         0.133188         1.086542
 C        -0.677811         1.236707         0.787100
 C        -2.052105         1.066161         0.499138
 C        -1.730605         1.870654         1.655595
 C        -1.184970         3.369116         1.518469
 O        -0.532102         3.815852         2.690947
 C         0.697870         3.008688         2.764807
 C         1.329709         2.956179         1.288045
 C         0.003665         2.725596         0.523215
 H        -0.209668        -0.568519         0.586175
 H        -2.602060         1.454379        -0.331534
 H        -2.256590         0.073033         0.700723
 H        -2.055295         1.683099         2.629392
 H        -1.935054         4.079831         1.115984
 H         1.459329         3.510121         3.389943
 H         0.647562         1.980546         3.232634
 H         1.626650         4.007807         0.952074
 H         2.097533         2.182091         1.171330
 H        -0.001467         3.088556        -0.509996
