19
Iteration:  3906charge 0 multiplicity 1
 O         0.137774        -0.015968         0.923504
 C        -0.602968         1.227037         0.879828
 C        -2.021783         1.223303         0.386230
 C        -1.670005         1.807963         1.797621
 C        -1.155607         3.227666         1.545886
 O        -0.552550         3.797892         2.661267
 C         0.753711         3.103144         2.764443
 C         1.245127         2.958293         1.314232
 C        -0.077471         2.803535         0.530512
 H         0.653761        -0.039081         1.821288
 H        -2.424636         2.024550        -0.469468
 H        -2.489348         0.324706         0.204117
 H        -2.184797         1.220130         2.669026
 H        -1.916459         4.007306         1.194363
 H         1.368616         3.727054         3.529079
 H         0.668051         2.118311         3.159815
 H         1.675019         3.953276         1.108995
 H         1.906887         2.182430         1.039315
 H        -0.020377         3.220755        -0.433997
