19
Iteration:  2408
 O         0.176308         0.070154         0.855040
 C        -0.598378         1.233300         0.824090
 C        -2.087951         1.161601         0.568843
 C        -1.706430         1.784340         1.771142
 C        -1.115883         3.297365         1.464823
 O        -0.536231         3.856698         2.595428
 C         0.705434         3.095003         2.806094
 C         1.209157         2.958413         1.364416
 C        -0.014131         2.647422         0.521158
 H         0.463232        -0.157925         1.718294
 H        -2.438172         1.807252        -0.326643
 H        -2.611663         0.158444         0.750864
 H        -2.065207         1.405003         2.695141
 H        -1.904935         4.003522         1.230732
 H         1.433439         3.847001         3.301264
 H         0.556217         2.217919         3.296501
 H         1.763844         3.947428         1.139089
 H         1.909937         2.126585         1.398439
 H         0.202922         3.151130        -0.462543
