19
Iteration:  2249
 O         0.219491         0.124082         0.953284
 C        -0.638895         1.200136         0.867551
 C        -2.100029         1.250145         0.340105
 C        -1.798290         1.797826         1.794049
 C        -1.172648         3.186213         1.577469
 O        -0.531686         3.827962         2.642796
 C         0.826909         3.230366         2.795637
 C         1.271248         2.981522         1.348338
 C        -0.004222         2.542358         0.620900
 H        -0.141573        -0.612728         0.496845
 H        -2.522666         1.682120        -0.499090
 H        -2.295212         0.138377         0.322764
 H        -2.439652         1.561673         2.636704
 H        -1.815578         3.846554         0.923208
 H         1.398345         4.144047         3.294774
 H         0.684881         2.306877         3.381821
 H         1.596423         3.908570         0.984849
 H         2.033346         2.199551         1.051264
 H         0.145991         2.798883        -0.443178
