19
Iteration:  1084charge 0 multiplicity 1
 O         0.282934         0.209916         1.003181
 C        -0.640530         1.305830         0.814558
 C        -2.052139         1.108041         0.516031
 C        -1.658562         1.878528         1.788525
 C        -1.183789         3.375812         1.438476
 O        -0.534479         3.822007         2.641178
 C         0.670369         2.964134         2.760991
 C         1.195211         2.858162         1.348987
 C        -0.000362         2.649310         0.471321
 H        -0.328959        -0.572648         1.258338
 H        -2.552871         1.766079        -0.086446
 H        -2.635497         0.148073         0.672651
 H        -1.957777         1.497300         2.704280
 H        -1.822487         4.080987         0.994881
 H         1.325847         3.526833         3.481499
 H         0.549254         1.943881         3.129489
 H         1.601678         3.743217         0.954660
 H         2.053435         2.143029         1.227087
 H         0.090936         3.010139        -0.508139
