19
Iteration:  2579
 O         0.213538         0.156281         0.956877
 C        -0.681139         1.215886         0.762265
 C        -2.121649         1.173555         0.530918
 C        -1.675003         1.785911         1.811345
 C        -1.175478         3.303185         1.462640
 O        -0.580808         3.855214         2.647972
 C         0.756806         3.194530         2.762053
 C         1.257455         2.822963         1.408528
 C         0.000978         2.595540         0.561414
 H         0.685553        -0.081457         0.123086
 H        -2.685977         1.837457        -0.162265
 H        -2.487865         0.229001         0.642682
 H        -1.902453         1.340224         2.754078
 H        -1.914883         4.075021         1.027707
 H         1.437857         3.910472         3.156274
 H         0.694630         2.310749         3.318124
 H         1.796700         3.664710         0.908517
 H         1.901640         1.938685         1.224069
 H         0.256702         2.961172        -0.446650
