19
Iteration:   224charge 0 multiplicity 1
 O         0.180063         0.044061         1.144657
 C        -0.679686         1.193577         0.906483
 C        -2.052911         1.268263         0.295832
 C        -1.821694         1.855176         1.678256
 C        -1.135932         3.229393         1.539754
 O        -0.510766         3.718871         2.653796
 C         0.859863         3.277112         2.743257
 C         1.227940         2.988395         1.274541
 C        -0.008883         2.569106         0.644020
 H        -0.281060        -0.679162         0.652826
 H        -2.175433         1.925039        -0.629446
 H        -2.558877         0.322037         0.385546
 H        -2.122204         1.383667         2.569082
 H        -1.682548         3.991922         0.885566
 H         1.475168         4.091743         3.036342
 H         0.918090         2.382946         3.435848
 H         1.319133         4.030793         0.789234
 H         2.141997         2.312044         1.281195
 H        -0.151271         2.921435        -0.347665
