19
Iteration:  2197charge 0 multiplicity 1
 O         0.159251         0.176607         1.086509
 C        -0.554835         1.263761         0.837543
 C        -2.044739         1.180420         0.480114
 C        -1.678576         1.849372         1.725366
 C        -1.176072         3.241222         1.498167
 O        -0.548097         3.749003         2.682937
 C         0.701475         3.088140         2.774348
 C         1.276886         2.939142         1.306017
 C        -0.054290         2.690876         0.459977
 H         0.044821        -0.427517         0.372839
 H        -2.499146         1.848407        -0.213576
 H        -2.604852         0.136314         0.538241
 H        -1.823821         1.379256         2.654073
 H        -1.916091         3.894794         1.057594
 H         1.318479         3.799742         3.403267
 H         0.512348         2.123928         3.122807
 H         1.664827         3.872784         1.010534
 H         2.009539         2.083993         1.172515
 H         0.132788         2.914839        -0.592058
