19
Iteration:  4243charge 0 multiplicity 1
 O         0.225957         0.066725         0.839502
 C        -0.648468         1.213278         0.766926
 C        -2.078155         1.172679         0.399176
 C        -1.762159         1.889546         1.777927
 C        -1.152239         3.250443         1.514525
 O        -0.524761         3.829065         2.714460
 C         0.774714         3.144384         2.795579
 C         1.166761         2.978388         1.399887
 C        -0.031178         2.577539         0.564272
 H         0.905942         0.322600         1.504779
 H        -2.426045         1.729734        -0.489542
 H        -2.543737         0.095789         0.611568
 H        -1.985661         1.344019         2.624281
 H        -1.762531         4.090052         1.193774
 H         1.329136         3.758536         3.557054
 H         0.506225         2.241129         3.416718
 H         1.852554         3.860543         1.033788
 H         1.815455         2.111779         1.305304
 H         0.108324         2.863564        -0.440677
