19
Iteration:   766
 O         0.065315         0.002624         1.075649
 C        -0.632983         1.183372         0.897744
 C        -2.049973         1.203501         0.338437
 C        -1.738851         1.934397         1.684289
 C        -1.139283         3.212397         1.444583
 O        -0.523829         3.661131         2.716162
 C         0.943512         3.385939         2.712724
 C         1.206661         3.014746         1.361556
 C        -0.052588         2.567745         0.644713
 H        -0.011541        -0.653611         0.277398
 H        -2.403814         1.722069        -0.493893
 H        -2.571777         0.240755         0.478538
 H        -2.433186         1.587796         2.578192
 H        -1.656061         4.094993         1.079343
 H         1.590804         4.224712         3.181381
 H         1.112154         2.507659         3.347655
 H         1.439296         3.932641         0.902717
 H         2.118214         2.329831         1.272059
 H        -0.033485         2.827147        -0.482114
