19
Iteration:  4431charge 0 multiplicity 1
 O         0.164483         0.066549         0.912090
 C        -0.565370         1.216193         0.785722
 C        -1.997947         1.172278         0.392411
 C        -1.730433         1.861578         1.759659
 C        -1.172429         3.220048         1.477908
 O        -0.507201         3.801572         2.721629
 C         0.670691         3.101191         2.857798
 C         1.193968         2.990301         1.314837
 C        -0.053966         2.653890         0.569543
 H         0.879577         0.184892         1.606335
 H        -2.250244         1.922620        -0.503204
 H        -2.606462         0.300905         0.448554
 H        -2.236240         1.563692         2.749418
 H        -1.859690         4.074240         1.157607
 H         1.504991         3.583293         3.512976
 H         0.631203         2.140078         3.269532
 H         1.627857         3.944724         0.819097
 H         1.966583         2.276495         1.186695
 H        -0.057382         2.994448        -0.476088
