19
Iteration:  3478charge 0 multiplicity 1
 O         0.129293         0.075051         0.805144
 C        -0.625259         1.228960         0.782592
 C        -2.071810         1.119309         0.442531
 C        -1.679031         1.897368         1.793893
 C        -1.154524         3.299059         1.500842
 O        -0.565787         3.799705         2.718936
 C         0.772647         3.233545         2.885158
 C         1.204834         2.869820         1.407060
 C        -0.020699         2.611565         0.498440
 H         1.029611         0.367938         1.190630
 H        -2.365056         1.794953        -0.371173
 H        -2.417769        -0.005044         0.452353
 H        -2.198079         1.512750         2.788426
 H        -1.795888         3.943973         0.942947
 H         1.413116         4.041835         3.289207
 H         0.777804         2.308752         3.483564
 H         1.805075         3.725761         1.057848
 H         1.813106         1.864964         1.517555
 H         0.053929         2.798109        -0.658940
