19
Iteration:  3246
 O         0.003683         0.038695         0.864551
 C        -0.596339         1.228057         0.791119
 C        -1.985856         1.219269         0.345778
 C        -1.832252         1.743804         1.794128
 C        -1.141238         3.147422         1.541313
 O        -0.582901         3.731377         2.719414
 C         0.861150         3.367136         2.776440
 C         1.296836         2.991623         1.359754
 C         0.019626         2.609874         0.646352
 H         0.796977         0.122544         1.464190
 H        -2.165000         1.823612        -0.540023
 H        -2.555938         0.196365         0.349131
 H        -2.450660         1.472406         2.657246
 H        -1.667020         3.852559         0.900718
 H         1.410899         4.306791         3.187008
 H         0.919564         2.489470         3.550844
 H         1.728010         3.922003         0.827796
 H         1.978993         2.136290         1.416860
 H         0.052745         3.126935        -0.409026
