19
Iteration:   288
 O         0.150534         0.025122         1.075189
 C        -0.662099         1.212186         0.747479
 C        -2.111261         1.202774         0.428264
 C        -1.667373         1.806279         1.780102
 C        -1.148428         3.200985         1.530286
 O        -0.488586         3.948511         2.570433
 C         0.771702         3.252204         2.785781
 C         1.229325         2.911320         1.401471
 C        -0.052572         2.581132         0.542258
 H         0.490137        -0.228523         0.140623
 H        -2.468771         1.867149        -0.463154
 H        -2.598328         0.275161         0.534325
 H        -1.979132         1.190040         2.580791
 H        -1.987632         3.884044         1.292891
 H         1.292842         3.981861         3.381371
 H         0.542491         2.246742         3.298548
 H         1.983362         3.665445         0.945530
 H         1.920080         1.991964         1.631999
 H         0.154972         3.015784        -0.449241
