19
Iteration:   586charge 0 multiplicity 1
 O         0.177658         0.005623         0.899018
 C        -0.620091         1.130317         0.822473
 C        -2.071246         1.177577         0.382755
 C        -1.799383         1.760209         1.746401
 C        -1.208588         3.274248         1.574022
 O        -0.554738         3.941014         2.668554
 C         0.884852         3.317042         2.782134
 C         1.334706         2.919219         1.340611
 C        -0.058120         2.561370         0.681807
 H        -0.328436        -0.797420         0.917332
 H        -2.274947         1.861175        -0.573450
 H        -2.665443         0.233953         0.414268
 H        -2.554037         1.609369         2.657098
 H        -1.674434         4.130430         1.063547
 H         1.508040         4.111809         3.096282
 H         0.792071         2.447356         3.499141
 H         1.763747         3.893789         0.822958
 H         2.107639         2.137576         1.336318
 H         0.069913         3.010653        -0.466020
