19
Iteration:  2279
 O         0.162285         0.062815         0.942813
 C        -0.601013         1.239811         0.827581
 C        -2.114428         1.192950         0.387502
 C        -1.637897         1.843352         1.753443
 C        -1.153339         3.237651         1.542078
 O        -0.625867         3.721462         2.743195
 C         0.803921         3.407567         2.813329
 C         1.266943         2.903711         1.369549
 C        -0.026297         2.608223         0.488575
 H        -0.297419        -0.699092         0.458822
 H        -2.499212         1.662184        -0.564084
 H        -2.542379         0.219738         0.497645
 H        -2.063173         1.375053         2.678223
 H        -1.816551         3.926253         0.986211
 H         1.324298         4.186873         3.242081
 H         1.079498         2.669826         3.671251
 H         2.073338         3.601367         0.939615
 H         1.763467         1.937872         1.316681
 H         0.192572         2.841016        -0.573643
