19
Iteration:  3260charge 0 multiplicity 1
 O         0.023801        -0.022369         0.855447
 C        -0.619830         1.234586         0.848186
 C        -2.031552         1.194403         0.390948
 C        -1.695625         1.830645         1.665450
 C        -1.153966         3.174272         1.528973
 O        -0.564823         3.720215         2.684811
 C         0.787809         3.311387         2.820914
 C         1.330038         3.015372         1.375498
 C         0.003852         2.660800         0.629562
 H         0.481730        -0.142058         1.681133
 H        -2.554577         1.816501        -0.377311
 H        -2.340600         0.194715         0.496081
 H        -2.150966         1.465555         2.532805
 H        -1.959201         4.008928         1.289686
 H         1.271339         4.186360         3.186551
 H         0.929553         2.476934         3.533640
 H         1.677946         3.935102         0.988230
 H         2.206100         2.358977         1.174100
 H        -0.104733         2.932646        -0.461753
