19
Iteration:  2618charge 0 multiplicity 1
 O         0.193661         0.059335         0.736240
 C        -0.598552         1.244109         0.824324
 C        -2.011695         1.112593         0.499549
 C        -1.704629         1.836756         1.878454
 C        -1.237799         3.277139         1.486419
 O        -0.514141         3.972904         2.565883
 C         0.774706         3.173925         2.785993
 C         1.249883         2.883088         1.440298
 C        -0.036302         2.619962         0.653124
 H        -0.437500        -0.709526         0.834021
 H        -2.522382         1.717347        -0.304103
 H        -2.502300         0.105827         0.571100
 H        -2.089173         1.272216         2.811540
 H        -1.952435         3.868607         0.993576
 H         1.423265         3.856013         3.383756
 H         0.469110         2.349658         3.566696
 H         1.698961         3.804971         1.167381
 H         1.964781         2.073172         1.532326
 H         0.109365         2.851172        -0.410801
