19
Iteration:  1771charge 0 multiplicity 1
 O         0.103245         0.100669         0.977789
 C        -0.665851         1.264406         0.832775
 C        -2.039610         1.095257         0.399439
 C        -1.741537         1.821313         1.763491
 C        -1.140394         3.252787         1.494404
 O        -0.571668         3.814175         2.640617
 C         0.798783         3.236212         2.823752
 C         1.279615         2.864943         1.390707
 C        -0.023263         2.680293         0.529503
 H         0.682141         0.018812         0.245164
 H        -2.315858         1.703278        -0.443871
 H        -2.460037         0.090647         0.742956
 H        -1.966108         1.402562         2.739217
 H        -2.019601         3.835904         1.129918
 H         1.391745         4.075082         3.117755
 H         1.046424         2.449168         3.603385
 H         1.932547         3.603579         1.113612
 H         1.788279         1.839658         1.275239
 H         0.047612         3.228215        -0.417310
