19
Iteration:   760
 O         0.046012        -0.016305         1.084435
 C        -0.633151         1.224032         0.859278
 C        -2.058537         1.163180         0.359771
 C        -1.782552         1.840201         1.685189
 C        -1.147462         3.259972         1.455409
 O        -0.501221         3.695628         2.753307
 C         0.916730         3.391661         2.734293
 C         1.221762         3.013172         1.333436
 C        -0.002125         2.562973         0.597591
 H         0.068688        -0.542411         0.271932
 H        -2.430259         1.704274        -0.587649
 H        -2.589232         0.248554         0.583643
 H        -2.458663         1.604380         2.525793
 H        -1.578517         4.193779         0.974551
 H         1.565072         4.123403         3.188447
 H         1.096591         2.509301         3.414796
 H         1.653408         3.973788         0.872024
 H         2.091682         2.404315         1.277414
 H        -0.060497         2.906410        -0.404768
