19
Iteration:  4512charge 0 multiplicity 1
 O         0.212580         0.032345         0.878352
 C        -0.649459         1.184808         0.815814
 C        -2.003836         1.272426         0.280894
 C        -1.752601         1.763384         1.796124
 C        -1.141259         3.206062         1.579107
 O        -0.536669         3.836427         2.689557
 C         0.796454         3.235234         2.838262
 C         1.212583         2.965727         1.343794
 C        -0.091006         2.642916         0.589160
 H         0.422876        -0.051596         1.869417
 H        -2.259046         1.888874        -0.506723
 H        -2.572534         0.261756         0.178526
 H        -2.366763         1.299630         2.548172
 H        -1.893264         3.919765         1.226738
 H         1.500304         3.808040         3.295234
 H         0.632778         2.234839         3.264843
 H         1.687628         3.854170         0.856633
 H         2.003065         2.115764         1.542618
 H        -0.164673         2.987488        -0.476084
