19
Iteration:  2337
 O         0.179504         0.035547         0.847078
 C        -0.640971         1.212602         0.815093
 C        -2.087571         1.252315         0.414685
 C        -1.689471         1.747001         1.788195
 C        -1.176058         3.152804         1.577554
 O        -0.557596         3.936266         2.648280
 C         0.762575         3.385113         2.747770
 C         1.239523         2.817454         1.421816
 C        -0.036180         2.545135         0.676152
 H         0.862841        -0.040172         0.211693
 H        -2.259811         1.997846        -0.232016
 H        -2.734727         0.359160         0.399043
 H        -2.115419         1.227605         2.620277
 H        -1.672000         3.945735         0.988677
 H         1.384439         4.197127         3.037191
 H         0.707515         2.571142         3.457002
 H         1.708035         3.604726         0.926777
 H         1.919269         1.935809         1.565902
 H         0.035854         2.768472        -0.384225
