19
Iteration:  2897charge 0 multiplicity 1
 O         0.094647        -0.035108         0.745333
 C        -0.599587         1.170994         0.928594
 C        -2.102572         1.278921         0.450125
 C        -1.576256         1.831040         1.838251
 C        -1.182944         3.185283         1.463637
 O        -0.611321         3.875855         2.678671
 C         0.694915         3.242205         2.780993
 C         1.314942         2.953460         1.400626
 C         0.030167         2.615922         0.571112
 H         0.545727        -0.185915         1.566493
 H        -2.136961         1.936391        -0.529290
 H        -2.664955         0.377174         0.497296
 H        -1.861230         1.352235         2.734167
 H        -1.952964         3.768819         1.073574
 H         1.404518         3.913825         3.323607
 H         0.388008         2.341297         3.343306
 H         1.644283         3.938873         0.928709
 H         2.067743         2.176342         1.351802
 H         0.137134         3.057943        -0.472270
