19
Iteration:  3877
 O         0.158044         0.159934         0.905593
 C        -0.677308         1.282783         0.794499
 C        -2.072510         1.117345         0.418775
 C        -1.754882         1.872495         1.781295
 C        -1.122769         3.215927         1.513856
 O        -0.513817         3.785226         2.704454
 C         0.770624         3.096631         2.803403
 C         1.238436         2.954759         1.357233
 C        -0.024139         2.640437         0.507962
 H         0.822933         0.249738         1.593230
 H        -2.536812         1.742561        -0.442496
 H        -2.397377         0.111404         0.771954
 H        -2.361676         1.372880         2.412017
 H        -1.874547         3.888849         1.069392
 H         1.443362         3.580261         3.538760
 H         0.685000         2.028347         3.205285
 H         1.566103         3.970992         1.159132
 H         2.107724         2.212021         1.169468
 H         0.198551         3.023701        -0.558199
