19
Iteration:  3117charge 0 multiplicity 1
 O         0.127595         0.072774         0.862749
 C        -0.578768         1.274496         0.816369
 C        -2.048243         1.216608         0.486712
 C        -1.731568         1.798864         1.795923
 C        -1.152753         3.216116         1.529494
 O        -0.489142         3.833199         2.603602
 C         0.700023         3.171109         2.769309
 C         1.236846         2.932351         1.442081
 C        -0.038666         2.649101         0.543004
 H         0.967539         0.055246         1.315359
 H        -2.478423         1.871738        -0.282966
 H        -2.616579         0.176993         0.426240
 H        -1.993013         1.019504         2.549455
 H        -1.898552         3.963475         0.994460
 H         1.145221         3.826289         3.508690
 H         0.460722         2.300702         3.402263
 H         1.879605         3.695124         1.023610
 H         1.841245         2.018749         1.327238
 H         0.086571         2.942338        -0.518013
