19
Iteration:  4813
 O         0.219450         0.051800         0.909093
 C        -0.623091         1.243013         0.746448
 C        -2.100517         1.251157         0.352213
 C        -1.672168         1.756008         1.753127
 C        -1.147464         3.244114         1.536931
 O        -0.501660         3.858455         2.663935
 C         0.657671         3.116585         2.841653
 C         1.220274         2.914498         1.388943
 C        -0.049946         2.671785         0.591383
 H         0.600693         0.057455         1.834323
 H        -2.389784         1.918578        -0.458431
 H        -2.689171         0.349685         0.441391
 H        -2.004291         1.102648         2.483732
 H        -1.821098         3.963360         1.067831
 H         1.369047         3.852909         3.364308
 H         0.418470         2.230087         3.450948
 H         1.918736         3.748271         1.046937
 H         2.065606         2.115379         1.358621
 H        -0.116442         3.196497        -0.484779
