19
Iteration:  3172charge 0 multiplicity 1
 O         0.111351         0.013494         0.764428
 C        -0.598297         1.241144         0.749772
 C        -2.044947         1.131179         0.438230
 C        -1.687249         1.874171         1.821116
 C        -1.129055         3.179464         1.527430
 O        -0.583667         3.863917         2.607870
 C         0.768423         3.236842         2.852826
 C         1.266551         2.904645         1.442287
 C        -0.008013         2.676701         0.620193
 H         0.537173        -0.039421         1.604939
 H        -2.617963         1.747848        -0.233654
 H        -2.424379         0.029054         0.566625
 H        -2.206605         1.642257         2.734229
 H        -1.929707         3.896851         1.010081
 H         1.269969         3.991652         3.403852
 H         0.568168         2.295919         3.391226
 H         1.709530         3.792925         1.014014
 H         1.936732         2.025789         1.306313
 H         0.158342         3.113430        -0.380102
