19
Iteration:  3574
 O         0.035642         0.064201         0.866956
 C        -0.581413         1.242667         0.843024
 C        -2.129785         1.135067         0.353065
 C        -1.750627         1.780929         1.707985
 C        -1.128651         3.227740         1.541561
 O        -0.543570         3.744312         2.672577
 C         0.826846         3.248280         2.818497
 C         1.257954         3.015249         1.386063
 C         0.021128         2.626206         0.644167
 H         0.842436         0.173258         1.383277
 H        -2.400236         1.731940        -0.502623
 H        -2.406852         0.062967         0.462008
 H        -2.207933         1.375062         2.684794
 H        -1.662860         4.085965         0.982103
 H         1.472268         4.079378         3.201775
 H         1.017550         2.421777         3.534607
 H         1.585108         3.923134         0.876741
 H         1.892982         2.231030         1.294763
 H         0.053271         3.124225        -0.277841
