19
Iteration:  1629charge 0 multiplicity 1
 O         0.239757         0.184498         1.085045
 C        -0.639523         1.267838         0.839478
 C        -2.013448         1.184164         0.384583
 C        -1.749280         1.821709         1.754247
 C        -1.170257         3.228097         1.512625
 O        -0.525075         3.870551         2.619505
 C         0.787898         3.136492         2.771675
 C         1.169061         2.818551         1.319939
 C        -0.073424         2.646699         0.548692
 H         0.323713        -0.275277         0.258626
 H        -2.270043         1.890372        -0.358349
 H        -2.575941         0.236990         0.632485
 H        -1.853011         1.169486         2.609468
 H        -1.998998         4.016934         1.290347
 H         1.327857         3.762083         3.419640
 H         0.551145         2.169162         3.373320
 H         1.859159         3.543979         0.815502
 H         1.860863         1.814094         1.424553
 H        -0.136658         3.024148        -0.501583
