19
Iteration:   692
 O         0.262014         0.128537         1.021013
 C        -0.679250         1.178843         0.898189
 C        -2.106551         1.203705         0.461143
 C        -1.645454         1.868345         1.805772
 C        -1.185429         3.280562         1.466202
 O        -0.500740         3.921192         2.580397
 C         0.684253         3.060796         2.722804
 C         1.292571         2.873209         1.346287
 C        -0.066995         2.621271         0.588064
 H         0.299024        -0.238050         0.134418
 H        -2.432419         1.777355        -0.398419
 H        -2.784090         0.385765         0.679356
 H        -2.304958         1.525292         2.732807
 H        -1.948753         4.013780         1.062763
 H         1.268098         3.563934         3.497472
 H         0.582064         2.061434         3.193263
 H         1.801828         3.620583         0.757153
 H         1.976199         2.017434         1.456426
 H         0.104604         2.909301        -0.387487
