19
Iteration:  3627charge 0 multiplicity 1
 O         0.121766         0.091446         0.940080
 C        -0.657528         1.266447         0.809085
 C        -1.990560         1.242547         0.320984
 C        -1.724104         1.793817         1.734968
 C        -1.281513         3.185740         1.588934
 O        -0.496676         3.770064         2.698715
 C         0.777393         3.208088         2.783648
 C         1.300147         2.944498         1.333652
 C        -0.037592         2.620707         0.595769
 H         0.539782        -0.083537         1.765392
 H        -2.271271         1.884004        -0.479623
 H        -2.440787         0.249846         0.374406
 H        -2.154807         1.388972         2.687853
 H        -1.900332         3.964946         1.053027
 H         1.425693         3.916590         3.409855
 H         0.907681         2.299279         3.382743
 H         1.570026         3.871169         0.747019
 H         1.949240         2.015540         1.060061
 H        -0.011293         3.031013        -0.419555
