19
Iteration:  1379
 O         0.017046        -0.006659         1.008594
 C        -0.556453         1.222487         0.820762
 C        -2.130266         1.117361         0.357880
 C        -1.789357         1.755308         1.696302
 C        -1.139814         3.221343         1.550162
 O        -0.513508         3.848165         2.702031
 C         0.882845         3.344593         2.790856
 C         1.278725         3.028163         1.339440
 C         0.006522         2.636601         0.587966
 H         0.548094        -0.322848         0.217612
 H        -2.727808         1.548308        -0.512490
 H        -2.449968         0.119579         0.396353
 H        -2.013348         1.231302         2.708788
 H        -1.887578         3.935990         1.206953
 H         1.541994         4.024260         3.260866
 H         0.923015         2.490103         3.487128
 H         1.748953         3.858442         0.902426
 H         1.922272         2.191303         1.535600
 H        -0.039815         3.016134        -0.480183
