19
Iteration:  3410
 O         0.106859        -0.100955         0.894720
 C        -0.609824         1.187001         0.790696
 C        -1.978713         1.314029         0.348433
 C        -1.710216         1.730362         1.756887
 C        -1.101614         3.179265         1.590417
 O        -0.535921         3.861535         2.676026
 C         0.784074         3.195481         2.824926
 C         1.193832         3.044261         1.292163
 C        -0.070307         2.690639         0.618259
 H         0.319729        -0.221153         1.832293
 H        -2.115767         2.134569        -0.407733
 H        -2.400632         0.348770         0.322512
 H        -2.338646         1.441399         2.579814
 H        -1.807156         3.931399         1.232697
 H         1.475732         3.927577         3.377308
 H         0.521908         2.355571         3.467489
 H         1.550518         4.076254         0.949045
 H         1.854436         2.192593         1.098571
 H        -0.028336         3.009263        -0.442938
