19
Iteration:   557charge 0 multiplicity 1
 O         0.046745         0.111141         0.996966
 C        -0.632012         1.231895         0.778291
 C        -2.072151         1.171508         0.476775
 C        -1.692202         1.791650         1.795614
 C        -1.085115         3.230878         1.423343
 O        -0.542381         3.698313         2.637716
 C         0.774638         3.336294         2.831792
 C         1.266704         2.960107         1.379212
 C        -0.014651         2.605804         0.500831
 H        -0.187779        -0.690382         0.567729
 H        -2.508914         1.727055        -0.358364
 H        -2.394600         0.188977         0.514169
 H        -2.041588         1.601188         2.813393
 H        -1.579161         4.120435         0.998038
 H         1.433753         4.188011         3.259977
 H         0.957275         2.559935         3.604558
 H         1.819324         3.825720         1.012309
 H         1.983651         2.134577         1.462057
 H         0.154033         2.918684        -0.451641
