19
Iteration:  3677charge 0 multiplicity 1
 O         0.154815         0.055360         0.878548
 C        -0.606461         1.285640         0.813569
 C        -2.036491         1.216125         0.497981
 C        -1.698822         1.863984         1.735289
 C        -1.149183         3.253559         1.560696
 O        -0.551194         3.785603         2.639851
 C         0.681327         3.079899         2.815757
 C         1.272627         2.982154         1.409929
 C        -0.026204         2.629420         0.452095
 H         0.763583         0.000019         1.649766
 H        -2.497693         1.816671        -0.312846
 H        -2.531527         0.179667         0.619543
 H        -2.174285         1.421824         2.665054
 H        -1.846468         4.014030         1.174679
 H         1.330326         3.686787         3.457227
 H         0.491777         2.066850         3.275858
 H         1.589955         3.984609         1.125550
 H         2.086263         2.306758         1.111943
 H         0.140437         2.803612        -0.683878
