19
Iteration:   956
 O         0.074655        -0.126123         0.941907
 C        -0.658493         1.173942         0.903868
 C        -2.115127         1.309059         0.367620
 C        -1.756202         1.741941         1.704692
 C        -1.139383         3.246929         1.562080
 O        -0.548303         3.758384         2.680998
 C         0.871303         3.513744         2.777829
 C         1.336657         2.967222         1.326642
 C         0.005653         2.546434         0.649663
 H         0.609047        -0.064486         0.187926
 H        -2.496853         2.011402        -0.277839
 H        -2.789303         0.389864         0.548257
 H        -2.196307         1.419114         2.577677
 H        -1.813227         3.863265         0.933393
 H         1.409352         4.358672         3.181617
 H         0.891199         2.709419         3.434597
 H         1.761965         3.810280         0.795941
 H         1.937962         2.148063         1.414591
 H        -0.017311         2.701987        -0.456479
