19
Iteration:   741charge 0 multiplicity 1
 O         0.002577         0.033594         1.117071
 C        -0.679479         1.214571         0.847540
 C        -2.102292         1.118059         0.330794
 C        -1.766462         1.848363         1.703457
 C        -1.128634         3.174769         1.574198
 O        -0.540914         3.799192         2.666385
 C         0.855723         3.316013         2.768761
 C         1.393086         2.994746         1.259955
 C        -0.004372         2.674478         0.599916
 H         0.386576        -0.463311         0.323218
 H        -2.505649         1.691653        -0.533551
 H        -2.470308        -0.000228         0.296777
 H        -1.933231         1.374485         2.541040
 H        -1.832221         3.950041         1.371940
 H         1.420083         4.051060         3.380616
 H         0.950612         2.452596         3.390462
 H         1.952106         3.910230         0.854666
 H         2.125799         2.155748         1.193817
 H        -0.046403         2.928273        -0.551938
