19
Iteration:  2456charge 0 multiplicity 1
 O         0.286727         0.144553         1.083730
 C        -0.642384         1.284077         0.779443
 C        -2.103661         1.203730         0.269840
 C        -1.838560         1.784053         1.682358
 C        -1.181345         3.215871         1.596964
 O        -0.472864         3.774679         2.688621
 C         0.881511         3.215346         2.737083
 C         1.243526         2.891224         1.265400
 C        -0.157203         2.646429         0.643182
 H        -0.217721        -0.486959         1.700045
 H        -2.539846         1.756579        -0.576686
 H        -2.534110         0.141986         0.428112
 H        -2.004975         1.443861         2.788949
 H        -1.927491         3.950319         1.182444
 H         1.466954         3.951778         3.091330
 H         1.010181         2.308356         3.462307
 H         1.591726         3.826360         0.849813
 H         2.049715         2.069984         1.233128
 H        -0.080111         2.910908        -0.401181
