19
Iteration:  4967
 O         0.175512         0.116424         0.854251
 C        -0.632627         1.215448         0.814550
 C        -2.067437         1.197242         0.409982
 C        -1.757774         1.852588         1.744064
 C        -1.165701         3.248144         1.499104
 O        -0.535773         3.791236         2.636062
 C         0.699705         3.076745         2.836664
 C         1.236368         2.932448         1.384651
 C         0.041673         2.669936         0.624274
 H         1.017328         0.295660         1.379560
 H        -2.530950         1.597568        -0.498214
 H        -2.412021         0.193232         0.745891
 H        -2.234195         1.581405         2.720325
 H        -1.723171         4.041003         1.016909
 H         1.259771         3.686581         3.622333
 H         0.404631         2.115425         3.348953
 H         1.594449         3.978443         1.137232
 H         2.065574         2.173835         1.198562
 H         0.321727         2.967817        -0.476188
