19
Iteration:  2998charge 0 multiplicity 1
 O         0.050069         0.024797         0.948418
 C        -0.607693         1.228185         0.854444
 C        -2.024115         1.219450         0.356623
 C        -1.791190         1.809487         1.687886
 C        -1.148858         3.161777         1.570821
 O        -0.476630         3.807366         2.686043
 C         0.758822         3.170552         2.743301
 C         1.282440         3.101912         1.326368
 C        -0.040304         2.635408         0.610653
 H         0.672795        -0.012918         1.744317
 H        -2.474080         1.552254        -0.623844
 H        -2.263659         0.111201         0.326356
 H        -2.058076         1.479954         2.730469
 H        -1.787707         3.918482         1.330471
 H         1.382580         3.689957         3.499530
 H         0.652407         2.153698         3.221318
 H         1.610780         4.023319         0.866969
 H         2.150078         2.432919         1.217073
 H         0.037971         2.881127        -0.460771
