19
Iteration:  2947charge 0 multiplicity 1
 O         0.214424         0.140971         0.898224
 C        -0.661976         1.270550         0.798886
 C        -2.141440         1.085690         0.397993
 C        -1.742589         1.821331         1.750651
 C        -1.226439         3.297440         1.539156
 O        -0.521481         3.887956         2.649693
 C         0.789062         3.117000         2.824137
 C         1.272005         2.865928         1.408917
 C        -0.008273         2.609618         0.533266
 H         1.068290         0.468796         1.288856
 H        -2.723257         1.681840        -0.209942
 H        -2.600543         0.018912         0.417295
 H        -2.155488         1.330085         2.690813
 H        -1.797958         4.215580         1.072188
 H         1.403830         3.788039         3.396367
 H         0.573944         2.235890         3.436370
 H         1.849748         3.591592         0.890887
 H         1.941717         1.954308         1.478308
 H         0.238444         2.910427        -0.461823
