19
Iteration:   420charge 0 multiplicity 1
 O         0.191337         0.106247         1.041434
 C        -0.673713         1.178427         0.903822
 C        -2.053116         1.183771         0.342163
 C        -1.813744         1.769594         1.708267
 C        -1.159756         3.267620         1.542977
 O        -0.514101         3.876458         2.624598
 C         0.853931         3.224808         2.730673
 C         1.295311         2.942193         1.309884
 C        -0.044124         2.603281         0.678047
 H        -0.219033        -0.755919         0.674827
 H        -2.498739         1.722623        -0.526803
 H        -2.550820         0.135994         0.388438
 H        -2.422443         1.443145         2.428275
 H        -1.770735         4.074363         1.141041
 H         1.430955         3.823573         3.386461
 H         0.650365         2.293842         3.341150
 H         1.786572         3.921332         0.961428
 H         2.127689         2.188472         1.218558
 H         0.031417         2.864691        -0.445966
