19
Iteration:  3607
 O         0.169517         0.036327         0.937873
 C        -0.675842         1.213274         0.856872
 C        -2.041799         1.256568         0.337718
 C        -1.810815         1.729861         1.684292
 C        -1.131957         3.258197         1.604345
 O        -0.525683         3.745571         2.713743
 C         0.827727         3.240571         2.793553
 C         1.194534         2.983709         1.292016
 C        -0.002054         2.652952         0.583040
 H         0.902798         0.049505         1.525378
 H        -2.168278         1.959022        -0.485683
 H        -2.653070         0.398398         0.228929
 H        -2.352252         1.486736         2.582772
 H        -1.950116         3.853599         1.173035
 H         1.512213         4.049593         3.142160
 H         0.837462         2.373083         3.498327
 H         1.889744         3.690767         0.846932
 H         1.757291         2.158552         1.427230
 H        -0.144206         2.908970        -0.380236
