19
Iteration:  3403charge 0 multiplicity 1
 O         0.095611        -0.084556         0.895982
 C        -0.560098         1.143177         0.816632
 C        -1.986921         1.297521         0.347737
 C        -1.732133         1.761508         1.779744
 C        -1.157265         3.213357         1.510149
 O        -0.495103         3.857537         2.734621
 C         0.772570         3.225800         2.833416
 C         1.202872         3.040034         1.319981
 C        -0.044248         2.680224         0.574178
 H         0.340110        -0.179017         1.795686
 H        -2.210598         2.037964        -0.409164
 H        -2.562113         0.335363         0.106880
 H        -2.331166         1.430158         2.746866
 H        -2.014743         3.767587         1.141393
 H         1.310958         3.903202         3.415460
 H         0.711066         2.121319         3.123119
 H         1.648803         3.947063         1.014357
 H         1.971043         2.231496         1.042287
 H        -0.152516         3.158997        -0.441991
