19
Iteration:  1805
 O         0.197919         0.088465         1.037205
 C        -0.651684         1.200325         0.837350
 C        -2.115395         1.227954         0.446835
 C        -1.686650         1.804306         1.777105
 C        -1.113082         3.186652         1.442089
 O        -0.557122         3.817081         2.614186
 C         0.745347         3.086376         2.793729
 C         1.271482         3.043015         1.365696
 C        -0.001880         2.664235         0.568772
 H         0.309935        -0.429192         0.217319
 H        -2.447434         1.840237        -0.418081
 H        -2.773140         0.388294         0.505411
 H        -1.983174         1.450724         2.720762
 H        -1.844821         3.956151         1.077743
 H         1.330932         3.780045         3.401563
 H         0.392406         2.161950         3.325745
 H         1.610481         3.937722         0.976176
 H         2.041987         2.231568         1.262322
 H        -0.010096         3.104994        -0.456723
