19
Iteration:  3568charge 0 multiplicity 1
 O         0.043034         0.036711         0.848633
 C        -0.581024         1.274409         0.869528
 C        -2.142628         1.128399         0.389931
 C        -1.758492         1.802206         1.712317
 C        -1.145851         3.172294         1.514331
 O        -0.512458         3.756646         2.690707
 C         0.795770         3.265069         2.841307
 C         1.252794         3.040738         1.394362
 C         0.028051         2.639060         0.591737
 H         0.854214         0.071860         1.468290
 H        -2.471418         1.689433        -0.539735
 H        -2.453485         0.112426         0.382206
 H        -2.095198         1.385561         2.594876
 H        -1.570078         4.047357         1.109011
 H         1.300510         4.108324         3.275867
 H         0.918631         2.342926         3.446386
 H         1.759035         3.914705         0.955396
 H         1.990825         2.099079         1.184468
 H         0.137865         3.129073        -0.462268
