19
Iteration:  4669charge 0 multiplicity 1
 O         0.136556         0.056411         0.857038
 C        -0.602863         1.216137         0.818621
 C        -2.132133         1.157164         0.370025
 C        -1.785362         1.796819         1.696393
 C        -1.165211         3.209434         1.549990
 O        -0.525154         3.750826         2.649574
 C         0.792835         3.241974         2.867414
 C         1.253934         3.015682         1.419525
 C         0.058945         2.691070         0.564208
 H         0.535710        -0.202933         1.669548
 H        -2.541402         1.809419        -0.398237
 H        -2.468465         0.197109         0.503084
 H        -2.276597         1.378870         2.595401
 H        -1.708846         4.059208         1.137125
 H         1.253941         4.035701         3.482461
 H         0.753586         2.230485         3.391300
 H         1.768930         3.872608         0.904391
 H         2.030143         2.120561         1.470312
 H         0.080229         3.106636        -0.495639
