19
Iteration:  3739charge 0 multiplicity 1
 O         0.097634         0.083005         0.844102
 C        -0.622281         1.187077         0.803850
 C        -2.089706         1.184641         0.377954
 C        -1.691292         1.790726         1.723507
 C        -1.121813         3.230525         1.542606
 O        -0.569325         3.828836         2.704135
 C         0.835232         3.277521         2.831429
 C         1.227690         2.880560         1.382950
 C        -0.046901         2.615708         0.613146
 H         0.996888         0.349331         1.200661
 H        -2.361427         1.857446        -0.408787
 H        -2.651942         0.220244         0.351209
 H        -1.957106         1.352496         2.718736
 H        -1.785322         3.924598         1.000856
 H         1.255634         4.018907         3.438931
 H         0.739550         2.427726         3.471339
 H         1.730376         3.762108         0.975854
 H         1.901580         2.049083         1.331440
 H         0.034484         2.910017        -0.353336
