19
Iteration:  1608charge 0 multiplicity 1
 O         0.171833         0.161666         1.115593
 C        -0.644363         1.151584         0.788832
 C        -2.177778         1.125717         0.329700
 C        -1.702571         1.781135         1.704553
 C        -1.162635         3.278457         1.497354
 O        -0.474714         3.828920         2.643884
 C         0.815692         3.150284         2.789676
 C         1.230301         2.927851         1.346588
 C        -0.046488         2.680631         0.613348
 H         0.695162        -0.041333         0.244178
 H        -2.753795         1.528375        -0.443149
 H        -2.245998         0.035355         0.609578
 H        -2.316696         1.623175         2.582933
 H        -1.915917         4.131571         1.229437
 H         1.383027         3.878855         3.295808
 H         0.814386         2.297959         3.419724
 H         1.819319         3.859637         1.051981
 H         1.956483         1.969213         1.219817
 H        -0.082572         3.186427        -0.389005
