19
Iteration:  1560charge 0 multiplicity 1
 O         0.074443        -0.010613         1.134621
 C        -0.519223         1.192607         0.957655
 C        -2.058362         1.283403         0.333775
 C        -1.682674         1.783979         1.692016
 C        -1.143545         3.179899         1.503460
 O        -0.548302         3.726933         2.668088
 C         0.816993         3.230013         2.733401
 C         1.220882         3.088195         1.279644
 C        -0.068071         2.678552         0.587752
 H         0.133046        -0.232102         0.211223
 H        -2.314705         2.028673        -0.488560
 H        -2.691200         0.399558         0.465994
 H        -2.111370         1.374018         2.658894
 H        -1.728904         3.926840         0.944863
 H         1.408581         3.865330         3.479416
 H         0.743419         2.133056         3.170962
 H         1.610233         4.034130         0.930197
 H         2.006408         2.303114         1.000132
 H        -0.012895         2.926886        -0.448431
