19
Iteration:   367charge 0 multiplicity 1
 O         0.125516         0.129596         0.959678
 C        -0.655515         1.238109         0.794975
 C        -2.125119         1.129668         0.461604
 C        -1.699472         1.821965         1.777880
 C        -1.163272         3.199132         1.457341
 O        -0.507648         3.848165         2.584418
 C         0.771465         3.248188         2.814315
 C         1.306680         2.940165         1.387310
 C         0.030840         2.610115         0.556054
 H        -0.435730        -0.704819         0.807256
 H        -2.535453         1.655967        -0.399335
 H        -2.480660         0.043713         0.630930
 H        -1.852159         1.462785         2.750808
 H        -1.772431         4.022004         1.061058
 H         1.326100         3.890228         3.449519
 H         0.545868         2.361047         3.491255
 H         1.923376         3.892929         1.169501
 H         1.924074         2.042590         1.605258
 H         0.139864         2.913866        -0.464225
