19
Iteration:   601
 O         0.198704         0.059206         0.875646
 C        -0.668134         1.195798         0.959838
 C        -2.008480         1.243448         0.310340
 C        -1.811652         1.812243         1.793721
 C        -1.124745         3.153908         1.560478
 O        -0.430749         3.910215         2.601113
 C         0.789524         3.344900         2.778903
 C         1.183552         2.916598         1.360146
 C        -0.066216         2.528356         0.657259
 H        -0.297383        -0.739753         0.956175
 H        -2.247758         1.915147        -0.472287
 H        -2.537275         0.334041         0.257713
 H        -2.281455         1.308677         2.548665
 H        -1.935581         3.753133         1.167001
 H         1.451939         4.063868         3.375232
 H         0.859980         2.463808         3.416665
 H         1.640915         3.730953         0.840459
 H         1.903991         2.071062         1.400816
 H        -0.110212         2.717505        -0.359647
