19
Iteration:  1224charge 0 multiplicity 1
 O         0.142974        -0.001223         0.962953
 C        -0.597032         1.176185         0.843708
 C        -2.100936         1.196388         0.411565
 C        -1.729999         1.804768         1.741901
 C        -1.127618         3.201233         1.560881
 O        -0.459329         3.889191         2.643821
 C         0.727024         3.290483         2.745859
 C         1.230751         2.927206         1.362093
 C        -0.064239         2.645315         0.618547
 H         0.714769        -0.077448         0.172157
 H        -2.504138         1.793956        -0.418195
 H        -2.652613         0.117643         0.377231
 H        -2.266189         1.299244         2.498202
 H        -1.872006         3.981186         1.225462
 H         1.361493         4.021357         3.254362
 H         0.752400         2.429698         3.534735
 H         1.928665         3.612920         1.003177
 H         1.900988         1.988658         1.442018
 H        -0.103427         3.192100        -0.400007
