19
Iteration:  1583
 O         0.050629         0.095400         1.092768
 C        -0.589207         1.185280         0.788279
 C        -2.037514         1.177031         0.443029
 C        -1.798445         1.855036         1.760177
 C        -1.201594         3.249804         1.507946
 O        -0.538511         3.699498         2.703241
 C         0.770919         3.216474         2.721552
 C         1.306244         3.030326         1.318629
 C         0.023991         2.592076         0.495475
 H         0.674881        -0.135057         0.352518
 H        -2.305457         1.831682        -0.456886
 H        -2.382000         0.206481         0.415082
 H        -1.981752         1.580285         2.800127
 H        -1.794191         4.150115         1.179839
 H         1.310277         3.968163         3.335171
 H         0.808205         2.217005         3.329507
 H         1.646403         3.993142         1.028353
 H         2.259288         2.332327         1.205451
 H         0.121129         2.924555        -0.531135
