19
Iteration:   686
 O         0.240283         0.154283         0.984606
 C        -0.642692         1.198170         0.892271
 C        -2.111539         1.156259         0.525257
 C        -1.724196         1.889188         1.790797
 C        -1.141946         3.277659         1.453629
 O        -0.486309         3.905707         2.566273
 C         0.675115         3.079792         2.734299
 C         1.268065         2.880381         1.349726
 C        -0.038025         2.620917         0.634969
 H         0.339693        -0.402802         0.129189
 H        -2.444634         1.830401        -0.370439
 H        -2.669346         0.243660         0.732175
 H        -2.263447         1.460619         2.564967
 H        -1.847125         4.015040         1.115080
 H         1.307106         3.622043         3.442358
 H         0.415873         2.036646         3.033033
 H         1.960960         3.741847         0.980608
 H         1.840678         1.941602         1.337719
 H         0.137379         2.798581        -0.536933
