19
Iteration:  3032
 O         0.074143        -0.044944         1.007641
 C        -0.614059         1.219789         0.829496
 C        -2.059856         1.290558         0.274401
 C        -1.701945         1.793787         1.679699
 C        -1.183082         3.198603         1.584364
 O        -0.492681         3.742244         2.741865
 C         0.820826         3.264790         2.806646
 C         1.228465         3.086932         1.304521
 C        -0.060292         2.607735         0.523786
 H         0.162477        -0.342882         1.938048
 H        -2.252370         1.993629        -0.474780
 H        -2.410583         0.190333         0.143588
 H        -1.884289         1.430695         2.745421
 H        -1.898590         3.840559         1.301128
 H         1.473496         4.045639         3.159700
 H         0.976142         2.305724         3.347087
 H         1.516298         4.029839         0.938047
 H         2.016781         2.308381         1.170820
 H         0.085012         2.955080        -0.489498
