19
Iteration:  3954charge 0 multiplicity 1
 O         0.051618         0.053627         0.827718
 C        -0.622991         1.252025         0.841372
 C        -2.067638         1.165554         0.386440
 C        -1.819992         1.731155         1.728080
 C        -1.148827         3.190703         1.475360
 O        -0.512162         3.742188         2.713744
 C         0.862291         3.285973         2.873242
 C         1.299870         3.074216         1.356800
 C        -0.009499         2.600308         0.629956
 H         0.746416         0.102479         1.486201
 H        -2.422272         1.824189        -0.515065
 H        -2.645323         0.084627         0.314658
 H        -2.369808         1.467230         2.569383
 H        -1.886776         3.908381         1.050862
 H         1.511061         4.115931         3.092662
 H         0.995287         2.490795         3.641135
 H         1.787557         3.991650         1.076690
 H         2.053932         2.192399         1.341998
 H        -0.071501         2.949063        -0.412439
