19
Iteration:  1350
 O         0.090829         0.084231         1.117992
 C        -0.609957         1.188548         0.826416
 C        -2.052204         1.269764         0.282489
 C        -1.669262         1.761693         1.775843
 C        -1.184766         3.178698         1.549851
 O        -0.517765         3.768571         2.675189
 C         0.857393         3.283241         2.756778
 C         1.226838         2.976991         1.258825
 C        -0.101510         2.603278         0.605943
 H         0.727027        -0.330483         0.433667
 H        -2.211633         2.068592        -0.536194
 H        -2.666502         0.386673         0.207358
 H        -2.181165         1.354694         2.611679
 H        -1.927872         3.908728         1.264724
 H         1.459625         4.112950         3.362306
 H         0.844161         2.360177         3.374554
 H         1.863292         3.779101         0.676674
 H         1.826012         2.096748         1.429544
 H        -0.249909         2.934445        -0.372318
