19
Iteration:  2532charge 0 multiplicity 1
 O         0.124013         0.029302         1.097944
 C        -0.644669         1.225893         0.894571
 C        -2.092735         1.177573         0.327949
 C        -1.699477         1.817874         1.675224
 C        -1.204920         3.269694         1.601690
 O        -0.451709         3.814404         2.677636
 C         0.791582         3.214585         2.755985
 C         1.264727         3.032740         1.232707
 C        -0.057176         2.569121         0.626855
 H         0.511542        -0.331192         0.322874
 H        -2.387638         1.905579        -0.506944
 H        -2.520379         0.064139         0.339520
 H        -2.068497         1.290652         2.641503
 H        -1.966825         3.913795         1.214894
 H         1.397615         3.768438         3.349765
 H         0.722013         2.287459         3.148494
 H         1.521149         4.009832         0.861972
 H         2.218386         2.411563         1.043914
 H        -0.218373         2.956362        -0.385703
