19
Iteration:   708
 O         0.192354         0.085286         1.108272
 C        -0.624919         1.234455         0.833926
 C        -2.083805         1.279718         0.398572
 C        -1.650623         1.833756         1.804229
 C        -1.164741         3.223483         1.553834
 O        -0.500618         3.877330         2.588807
 C         0.744654         3.168476         2.797842
 C         1.184061         2.831416         1.303041
 C        -0.065228         2.576123         0.494903
 H         0.511571        -0.299789         0.320033
 H        -2.307925         2.051893        -0.418504
 H        -2.638003         0.305332         0.376360
 H        -1.883420         1.445234         2.722025
 H        -1.904823         3.918460         1.180263
 H         1.479784         3.815762         3.293868
 H         0.461116         2.262980         3.356732
 H         1.659152         3.853783         1.126959
 H         1.939027         2.055499         1.114350
 H        -0.202239         2.887173        -0.646114
