19
Iteration:  3071
 O         0.119953         0.039647         0.890638
 C        -0.653354         1.245484         0.919511
 C        -2.098801         1.156397         0.324893
 C        -1.861362         1.840400         1.671035
 C        -1.202921         3.206497         1.539145
 O        -0.506102         3.695197         2.699369
 C         0.906546         3.317348         2.801765
 C         1.266102         2.953537         1.374366
 C         0.010286         2.633524         0.612734
 H         0.849952         0.279743         1.525258
 H        -2.438112         1.706487        -0.657704
 H        -2.582802         0.183033         0.150982
 H        -2.080001         1.571654         2.695948
 H        -1.916376         4.163519         1.244413
 H         1.420887         4.230666         3.212740
 H         1.017856         2.526909         3.551689
 H         1.865984         3.800550         0.868541
 H         1.991481         2.136546         1.348557
 H        -0.101224         2.860871        -0.495311
