19
Iteration:  1184charge 0 multiplicity 1
 O         0.028810        -0.026460         0.936818
 C        -0.605917         1.221766         0.774705
 C        -2.140864         1.236706         0.402271
 C        -1.685908         1.721931         1.777008
 C        -1.072619         3.145455         1.571993
 O        -0.573519         3.752526         2.641251
 C         0.774536         3.476950         2.786166
 C         1.329643         2.967606         1.420739
 C         0.053027         2.640678         0.598300
 H         0.090475        -0.368951         0.006634
 H        -2.569441         1.964203        -0.245067
 H        -2.573854         0.183363         0.454839
 H        -2.106141         1.467399         2.819944
 H        -1.746371         3.797818         1.067070
 H         1.329538         4.425232         2.994765
 H         0.835832         2.649329         3.422136
 H         1.872473         3.776629         0.883851
 H         1.970820         2.090355         1.584459
 H         0.040304         2.923955        -0.399462
