19
Iteration:   581
 O         0.175690        -0.011093         0.918381
 C        -0.589638         1.186235         0.801797
 C        -2.132763         1.147684         0.386112
 C        -1.771068         1.801699         1.719674
 C        -1.204414         3.270422         1.575276
 O        -0.582932         3.911767         2.668055
 C         0.882681         3.293923         2.777505
 C         1.345369         2.939658         1.327344
 C        -0.024415         2.585762         0.673313
 H        -0.470372        -0.810862         0.853518
 H        -2.358803         1.689327        -0.436390
 H        -2.805533         0.224189         0.508150
 H        -2.355003         1.646190         2.530648
 H        -1.761669         4.077804         1.031191
 H         1.463077         4.183028         3.207423
 H         1.032447         2.467916         3.485061
 H         1.756054         3.748941         0.869823
 H         2.147644         2.184505         1.515134
 H         0.055230         2.939611        -0.272130
