19
Iteration:  4692
 O         0.083760         0.036459         0.867817
 C        -0.590938         1.178292         0.844190
 C        -2.002816         1.219152         0.277357
 C        -1.727005         1.841265         1.732820
 C        -1.217027         3.223531         1.555652
 O        -0.562776         3.809148         2.738021
 C         0.792443         3.193019         2.816268
 C         1.230250         2.977387         1.362609
 C         0.007388         2.562580         0.628195
 H         0.838876         0.079872         1.516470
 H        -2.144965         1.915162        -0.534952
 H        -2.449301         0.209106         0.298035
 H        -2.167220         1.671444         2.679110
 H        -1.788782         4.054551         1.106961
 H         1.277595         4.104358         3.309112
 H         0.872267         2.257102         3.436116
 H         1.461518         3.995773         0.853711
 H         2.193630         2.282121         1.229535
 H        -0.090888         3.014609        -0.386204
