19
Iteration:  2023charge 0 multiplicity 1
 O         0.304614         0.214564         0.989210
 C        -0.634220         1.213085         0.811777
 C        -2.199230         1.212824         0.431698
 C        -1.616690         1.786437         1.730417
 C        -1.198672         3.197087         1.575124
 O        -0.477594         3.908516         2.564355
 C         0.731181         3.170123         2.839059
 C         1.197699         2.827217         1.410858
 C        -0.070570         2.593847         0.542220
 H        -0.076911        -0.605206         0.518036
 H        -2.454044         1.931908        -0.429126
 H        -2.889251         0.343917         0.473628
 H        -2.029108         1.380322         2.736352
 H        -1.817295         3.938800         1.075638
 H         1.357546         3.756977         3.377344
 H         0.788637         2.259078         3.393124
 H         1.789512         3.650788         0.983849
 H         1.826129         1.869627         1.205160
 H         0.019529         2.972384        -0.474683
