19
Iteration:  4225
 O         0.174863         0.091416         0.870771
 C        -0.604841         1.233202         0.839934
 C        -2.037426         1.196343         0.394812
 C        -1.798762         1.777148         1.732514
 C        -1.185367         3.202450         1.555456
 O        -0.496546         3.853715         2.658579
 C         0.729614         3.117890         2.818026
 C         1.258274         2.914073         1.350569
 C        -0.056614         2.642364         0.612117
 H         1.009686         0.313637         1.326904
 H        -2.322710         1.916133        -0.361185
 H        -2.418997         0.223890         0.477532
 H        -2.370639         1.574800         2.628249
 H        -1.824559         4.051447         1.141778
 H         1.431510         3.752898         3.456198
 H         0.658666         2.158197         3.313921
 H         1.545487         3.932048         0.913283
 H         2.228879         2.344335         1.268523
 H        -0.198725         3.068625        -0.471954
