19
Iteration:  1949
 O         0.134604         0.001140         1.033318
 C        -0.664962         1.182965         0.816457
 C        -2.112375         1.300214         0.426042
 C        -1.689260         1.774627         1.716360
 C        -1.172154         3.177078         1.584414
 O        -0.532356         3.862357         2.600610
 C         0.784720         3.210147         2.752588
 C         1.274604         3.041271         1.336877
 C         0.019294         2.587115         0.606776
 H         0.380304        -0.382606         0.220464
 H        -2.382881         1.956707        -0.431875
 H        -2.677916         0.350734         0.393289
 H        -2.147272         1.357246         2.691960
 H        -2.070985         3.828372         1.270722
 H         1.588925         3.720626         3.483209
 H         0.661511         2.143248         3.191961
 H         1.622079         4.032226         0.949140
 H         2.195671         2.465944         1.498732
 H         0.168087         2.895913        -0.472748
