19
Iteration:  4538
 O         0.079627         0.069439         0.859750
 C        -0.600836         1.241701         0.761463
 C        -2.033090         1.156615         0.377174
 C        -1.700796         1.735280         1.734151
 C        -1.206961         3.220841         1.563353
 O        -0.588530         3.820908         2.639376
 C         0.814199         3.218669         2.882513
 C         1.309830         2.984761         1.371984
 C        -0.003484         2.666901         0.607856
 H         0.410887        -0.001919         1.814292
 H        -2.438631         1.899026        -0.380806
 H        -2.477682         0.286926         0.174773
 H        -2.145637         1.174559         2.633488
 H        -1.979195         3.920637         1.247532
 H         1.525434         4.028610         3.309720
 H         0.660417         2.275035         3.483422
 H         1.749676         3.901568         0.971908
 H         2.103052         2.123197         1.424230
 H         0.037285         2.914240        -0.446775
