19
Iteration:  3774charge 0 multiplicity 1
 O         0.075432        -0.013139         0.783279
 C        -0.610723         1.233364         0.842778
 C        -2.048379         1.195027         0.416113
 C        -1.682770         1.738966         1.731194
 C        -1.152135         3.255161         1.531232
 O        -0.609763         3.817214         2.634178
 C         0.883350         3.263401         2.847443
 C         1.224303         3.011995         1.390762
 C        -0.021592         2.640032         0.644024
 H         0.290910        -0.429872         1.690504
 H        -2.370550         1.987915        -0.324849
 H        -2.664398         0.171729         0.362578
 H        -1.948290         1.424155         2.822748
 H        -1.782135         4.009302         0.988749
 H         1.469571         3.973194         3.458319
 H         0.893040         2.237780         3.175870
 H         1.724410         3.880889         0.964479
 H         1.964883         2.271672         1.426810
 H         0.114579         3.015896        -0.288883
