19
Iteration:  3185charge 0 multiplicity 1
 O         0.059129         0.086475         0.807951
 C        -0.623950         1.268214         0.854300
 C        -2.071478         1.160881         0.428865
 C        -1.709454         1.707722         1.739282
 C        -1.210684         3.238634         1.501605
 O        -0.570401         3.832954         2.639489
 C         0.774410         3.272531         2.836160
 C         1.333441         2.869190         1.429339
 C         0.015470         2.672515         0.594448
 H         0.888092         0.074549         1.398209
 H        -2.337651         1.701377        -0.483621
 H        -2.563825         0.226003         0.523558
 H        -1.999693         1.229364         2.622852
 H        -1.907679         3.991251         1.069940
 H         1.380330         4.092069         3.170467
 H         0.852493         2.544896         3.686220
 H         1.936616         3.644424         1.073828
 H         2.046570         2.018527         1.388783
 H         0.035266         2.955824        -0.416888
