19
Iteration:    64
 O        -0.002202        -0.116695         0.935617
 C        -0.628877         1.176764         0.842557
 C        -2.122202         1.200775         0.395414
 C        -1.651325         1.751494         1.731593
 C        -1.097175         3.192998         1.457502
 O        -0.580842         3.893060         2.659373
 C         0.778691         3.448614         2.784421
 C         1.378317         2.970819         1.419100
 C        -0.020029         2.618466         0.664849
 H         0.634117        -0.115723         0.196595
 H        -2.530153         1.876200        -0.327891
 H        -2.466398         0.163991         0.267737
 H        -1.899435         1.385028         2.737421
 H        -1.737998         3.876169         0.928084
 H         1.351224         4.265238         3.396734
 H         0.779011         2.564366         3.458246
 H         1.833874         3.717076         0.864389
 H         1.954500         2.101278         1.633937
 H         0.006179         2.886944        -0.408702
