19
Iteration:   922charge 0 multiplicity 1
 O         0.109525         0.038635         0.944400
 C        -0.596346         1.223527         0.832538
 C        -2.068557         1.217095         0.420328
 C        -1.698114         1.717150         1.787270
 C        -1.157425         3.230327         1.530977
 O        -0.511371         3.918657         2.560069
 C         0.785479         3.318118         2.809404
 C         1.267507         2.837582         1.389819
 C        -0.039392         2.642349         0.634780
 H        -0.111129        -0.443297         0.135950
 H        -2.611629         1.817893        -0.247306
 H        -2.531924         0.271284         0.535694
 H        -1.967571         1.156971         2.706077
 H        -1.908928         3.959552         1.246442
 H         1.346095         4.103501         3.311019
 H         0.780157         2.497252         3.440053
 H         1.793771         3.591649         0.859684
 H         1.889600         1.996035         1.310564
 H         0.089114         2.968607        -0.421706
