19
Iteration:  3710charge 0 multiplicity 1
 O         0.158911         0.075745         0.887499
 C        -0.596652         1.219399         0.810756
 C        -2.049087         1.187601         0.390527
 C        -1.803656         1.807354         1.728153
 C        -1.172974         3.244509         1.632354
 O        -0.504437         3.860623         2.610559
 C         0.784753         3.163224         2.830365
 C         1.256063         2.871882         1.380887
 C        -0.058577         2.665732         0.587005
 H         1.137491         0.364145         0.895187
 H        -2.400126         1.828774        -0.471386
 H        -2.541550         0.128336         0.578014
 H        -2.268776         1.255388         2.624346
 H        -1.847266         3.972167         1.139102
 H         1.233427         3.898590         3.538295
 H         0.499149         2.259847         3.438296
 H         1.745400         3.794974         1.050008
 H         2.021095         2.010047         1.260339
 H        -0.117068         3.054450        -0.536934
