19
Iteration:  2880
 O         0.027408        -0.005763         0.761193
 C        -0.614169         1.210695         0.800842
 C        -2.042605         1.250914         0.443655
 C        -1.682066         1.740549         1.807276
 C        -1.077162         3.166782         1.536586
 O        -0.555814         3.838101         2.596805
 C         0.737561         3.318997         2.857226
 C         1.264948         3.040167         1.392857
 C         0.026099         2.531698         0.650063
 H         0.678665        -0.004132         1.479734
 H        -2.529986         1.949504        -0.173455
 H        -2.502795         0.267908         0.415249
 H        -2.254073         1.487283         2.732668
 H        -1.786376         3.888809         0.948735
 H         1.258310         4.090878         3.450339
 H         0.735598         2.327366         3.340779
 H         1.636020         3.949958         0.946108
 H         2.087170         2.275472         1.458820
 H         0.030567         2.792165        -0.391213
