19
Iteration:  2155
 O         0.186767         0.102774         1.033642
 C        -0.694892         1.231207         0.809754
 C        -2.057680         1.069860         0.336872
 C        -1.774877         1.847788         1.770265
 C        -1.203618         3.276012         1.556320
 O        -0.445941         3.827995         2.677031
 C         0.768094         3.183103         2.759598
 C         1.214406         2.930523         1.331049
 C        -0.036125         2.631513         0.584351
 H         0.964845         0.192186         0.398356
 H        -2.304347         1.644016        -0.537208
 H        -2.740982         0.122921         0.434884
 H        -2.169317         1.595157         2.700352
 H        -1.850150         4.113963         1.415881
 H         1.494514         3.825606         3.129469
 H         0.715483         2.078367         3.284335
 H         1.751556         3.881929         1.002692
 H         1.967658         2.108134         1.280766
 H        -0.015551         2.970525        -0.444894
