19
Iteration:  1617charge 0 multiplicity 1
 O         0.219321         0.166424         1.108819
 C        -0.628840         1.246187         0.771969
 C        -2.093279         1.120361         0.384781
 C        -1.731612         1.804155         1.721408
 C        -1.217250         3.267682         1.572912
 O        -0.450087         3.845448         2.636098
 C         0.749953         3.174326         2.778468
 C         1.243179         2.835104         1.361720
 C        -0.105467         2.680366         0.545169
 H         0.621242        -0.223377         0.246911
 H        -2.498591         1.646302        -0.509650
 H        -2.557733         0.136754         0.367842
 H        -2.198189         1.509060         2.647694
 H        -1.898642         4.028211         1.103905
 H         1.507867         3.807477         3.181308
 H         0.686156         2.220272         3.474100
 H         1.715127         3.744602         1.035160
 H         1.911479         1.873839         1.205259
 H         0.057669         3.000672        -0.491045
