19
Iteration:  2788charge 0 multiplicity 1
 O         0.218788         0.094155         0.981502
 C        -0.648969         1.276311         0.809046
 C        -2.054510         1.169928         0.414302
 C        -1.764231         1.855793         1.664679
 C        -1.176370         3.283070         1.570987
 O        -0.540512         3.818039         2.709441
 C         0.787227         3.088907         2.769591
 C         1.277472         2.939189         1.334738
 C        -0.060491         2.621744         0.490381
 H         0.205948        -0.037368         1.936085
 H        -2.583116         1.753289        -0.422139
 H        -2.336576        -0.007834         0.558539
 H        -2.139072         1.307453         2.559683
 H        -1.853731         4.113026         1.225663
 H         1.576340         3.712416         3.354276
 H         0.501569         2.111803         3.238413
 H         1.705849         3.992745         0.978730
 H         2.172273         2.257921         1.287237
 H        -0.168604         2.850392        -0.612785
