19
Iteration:  4173
 O         0.129783         0.018717         0.896445
 C        -0.669506         1.198501         0.737327
 C        -2.070031         1.192965         0.364003
 C        -1.666400         1.803731         1.719954
 C        -1.162480         3.234340         1.532865
 O        -0.563896         3.749058         2.710635
 C         0.810704         3.181626         2.804622
 C         1.261923         3.057753         1.359248
 C        -0.023067         2.687864         0.621688
 H         0.373201         0.028650         1.879166
 H        -2.419501         1.743640        -0.627078
 H        -2.580247         0.326460         0.695455
 H        -2.109746         1.398281         2.721075
 H        -1.827066         4.067183         1.221176
 H         1.361742         3.938313         3.380441
 H         0.913633         2.203476         3.411536
 H         1.562840         3.944639         0.946473
 H         2.060975         2.329303         1.203374
 H         0.087034         2.914505        -0.421322
