19
Iteration:  3294
 O         0.138251         0.063900         0.914370
 C        -0.588528         1.199192         0.793078
 C        -2.063021         1.245477         0.381333
 C        -1.657832         1.789906         1.726313
 C        -1.131725         3.184950         1.538255
 O        -0.528729         3.848612         2.682055
 C         0.702357         3.128274         2.798036
 C         1.278094         3.000698         1.326226
 C        -0.024123         2.638675         0.586469
 H         0.360018        -0.120455         1.852381
 H        -2.575309         1.848549        -0.412727
 H        -2.503965         0.304491         0.551997
 H        -2.132071         1.508354         2.705129
 H        -1.946241         3.949416         1.121252
 H         1.285484         3.671019         3.485355
 H         0.494919         2.164756         3.321616
 H         1.436376         4.001602         1.110025
 H         2.147566         2.330025         1.166155
 H        -0.242641         2.960308        -0.440958
