19
Iteration:  4164charge 0 multiplicity 1
 O         0.127038         0.044489         0.880665
 C        -0.622036         1.253454         0.840236
 C        -2.091515         1.157560         0.375830
 C        -1.718976         1.790568         1.673557
 C        -1.183478         3.191737         1.511624
 O        -0.473364         3.728547         2.712885
 C         0.821211         3.240739         2.841062
 C         1.235266         3.046147         1.356898
 C        -0.022421         2.658503         0.554726
 H         0.346633        -0.096829         1.872465
 H        -2.483998         1.836329        -0.506603
 H        -2.683783         0.304890         0.339543
 H        -2.125607         1.452712         2.764464
 H        -1.828712         3.984456         1.217334
 H         1.224205         3.937185         3.487192
 H         0.739727         2.208164         3.313286
 H         1.531884         3.995713         0.917257
 H         2.015659         2.313049         1.401161
 H         0.045185         3.090625        -0.350544
