19
Iteration:  4286charge 0 multiplicity 1
 O         0.085370         0.065088         0.820772
 C        -0.571386         1.264113         0.782358
 C        -2.034152         1.185498         0.420690
 C        -1.648946         1.777326         1.770307
 C        -1.213850         3.256022         1.536412
 O        -0.549949         3.820976         2.652996
 C         0.736729         3.211742         2.811791
 C         1.287395         2.941666         1.436948
 C        -0.051668         2.627730         0.564782
 H         0.702211         0.053820         1.529278
 H        -2.561459         1.788128        -0.358630
 H        -2.535312         0.072014         0.269162
 H        -1.781535         1.379556         2.737197
 H        -2.010205         3.860417         1.102346
 H         1.354944         3.823746         3.560018
 H         0.638218         2.138368         3.316477
 H         1.785910         3.815217         0.956377
 H         2.005825         2.221367         1.653460
 H         0.034043         2.968583        -0.426858
