19
Iteration:  2987charge 0 multiplicity 1
 O         0.093980         0.031939         0.922605
 C        -0.623169         1.271095         0.913890
 C        -2.022864         1.181186         0.379090
 C        -1.753664         1.805102         1.769279
 C        -1.216054         3.319683         1.454443
 O        -0.522459         3.755202         2.708990
 C         0.799187         3.154511         2.789673
 C         1.254273         2.997764         1.326173
 C        -0.004645         2.623431         0.545606
 H         0.882993         0.228959         1.449642
 H        -2.302650         1.918830        -0.424341
 H        -2.305352         0.105440         0.425670
 H        -2.240921         1.366363         2.682789
 H        -1.882056         4.038842         1.111336
 H         1.421110         3.826540         3.422763
 H         0.685980         2.127907         3.195694
 H         1.545923         3.999758         1.028397
 H         2.085337         2.286271         1.219160
 H         0.015997         2.735887        -0.548081
