19
Iteration:   936charge 0 multiplicity 1
 O         0.063279         0.043185         0.924428
 C        -0.670426         1.223455         0.850742
 C        -2.043800         1.265891         0.420528
 C        -1.683517         1.793028         1.832954
 C        -1.172479         3.131143         1.565313
 O        -0.525399         3.835951         2.617252
 C         0.825750         3.377754         2.740343
 C         1.264800         2.898362         1.395588
 C        -0.017914         2.518812         0.610439
 H         0.284086        -0.316299         0.046675
 H        -2.125981         2.009314        -0.379297
 H        -2.506972         0.193584         0.202451
 H        -2.116202         1.496833         2.697776
 H        -1.811671         3.782505         0.845156
 H         1.468197         4.211756         2.979995
 H         0.780895         2.676254         3.593703
 H         1.755059         3.831647         0.941896
 H         1.979931         2.129204         1.598385
 H        -0.093412         2.879547        -0.369533
