19
Iteration:  2809charge 0 multiplicity 1
 O         0.196395         0.162791         0.947294
 C        -0.706217         1.187965         0.846043
 C        -2.096910         1.223964         0.373848
 C        -1.691617         1.831699         1.769110
 C        -1.168004         3.182813         1.469841
 O        -0.521155         3.699941         2.597462
 C         0.758702         3.223100         2.837408
 C         1.256026         2.906338         1.320121
 C        -0.007259         2.691329         0.658253
 H         0.661515        -0.032387         1.765498
 H        -2.488826         2.045623        -0.335945
 H        -2.699578         0.143303         0.345659
 H        -2.216897         1.401310         2.639583
 H        -1.779731         4.010923         1.207473
 H         1.394180         4.063307         3.228780
 H         0.713739         2.231349         3.400171
 H         1.786868         3.868155         0.931132
 H         1.862202         2.010842         1.048082
 H         0.079207         2.950400        -0.438524
