19
Iteration:    52
 O        -0.069909        -0.061668         0.915706
 C        -0.616924         1.186748         0.809727
 C        -2.008447         1.186437         0.377848
 C        -1.683410         1.743773         1.778017
 C        -1.170291         3.194650         1.530147
 O        -0.563825         3.891247         2.605297
 C         0.854184         3.434496         2.826406
 C         1.232303         2.981708         1.454799
 C         0.073496         2.529732         0.613570
 H         0.673209        -0.181532         0.346527
 H        -2.297753         1.871820        -0.382437
 H        -2.559456         0.160871         0.384012
 H        -2.110437         1.359307         2.785742
 H        -1.916908         3.871704         1.060531
 H         1.528455         4.355154         3.069654
 H         0.910043         2.623747         3.610243
 H         1.725459         3.810294         0.956160
 H         2.048671         2.254158         1.420920
 H         0.209781         2.970390        -0.463356
