19
Iteration:  2372charge 0 multiplicity 1
 O         0.028118         0.012454         0.826476
 C        -0.561867         1.237339         0.768011
 C        -2.078391         1.128368         0.542852
 C        -1.686493         1.751269         1.804646
 C        -1.110631         3.249494         1.516648
 O        -0.534577         3.928135         2.581280
 C         0.687684         3.197660         2.802547
 C         1.251761         2.968378         1.443234
 C         0.040793         2.655515         0.595590
 H         0.956324         0.088055         0.680929
 H        -2.567808         1.676136        -0.267741
 H        -2.504457         0.192278         0.564951
 H        -1.956029         1.266011         2.834159
 H        -1.927428         3.809234         0.962125
 H         1.405802         3.856241         3.471545
 H         0.555945         2.365835         3.415180
 H         1.690643         3.852228         0.970083
 H         2.108110         2.257401         1.489997
 H         0.074763         2.798802        -0.524804
