19
Iteration:  2480
 O         0.129456         0.139451         1.084511
 C        -0.664479         1.270050         0.850682
 C        -2.063967         1.121110         0.331894
 C        -1.762084         1.848082         1.713752
 C        -1.127957         3.209395         1.561569
 O        -0.517533         3.634280         2.751961
 C         0.859389         3.267809         2.725625
 C         1.260793         3.057427         1.252315
 C        -0.054059         2.667862         0.504196
 H        -0.266912        -0.679849         1.334623
 H        -2.250349         1.648820        -0.592819
 H        -2.670835         0.312054         0.574002
 H        -2.303188         1.362144         2.652837
 H        -1.819462         3.948954         1.025306
 H         1.482079         4.025030         3.252586
 H         1.114722         2.217057         3.317976
 H         1.763707         3.934264         0.871513
 H         1.985581         2.184484         1.290018
 H         0.056043         2.834606        -0.577617
