19
Iteration:  2611charge 0 multiplicity 1
 O         0.216115         0.080419         0.753882
 C        -0.647300         1.202700         0.849293
 C        -2.031518         1.089475         0.520957
 C        -1.700396         1.835435         1.855776
 C        -1.199124         3.325552         1.477252
 O        -0.488890         3.906463         2.544197
 C         0.739643         3.212367         2.842107
 C         1.252924         2.879966         1.434864
 C        -0.041612         2.631752         0.643342
 H        -0.299551        -0.691119         0.538273
 H        -2.575236         1.716091        -0.331757
 H        -2.456550         0.156991         0.707700
 H        -2.190769         1.348665         2.691710
 H        -2.005231         4.002410         1.073074
 H         1.265369         3.893638         3.426302
 H         0.542870         2.410559         3.472097
 H         1.809491         3.790741         1.107333
 H         1.903707         1.950937         1.244766
 H         0.160978         2.976911        -0.380318
