19
Iteration:   177charge 0 multiplicity 1
 O         0.241120         0.132750         1.143435
 C        -0.662750         1.213122         0.793713
 C        -2.049921         1.183150         0.390228
 C        -1.792377         1.887192         1.674616
 C        -1.138531         3.306710         1.486012
 O        -0.516785         3.723255         2.648592
 C         0.776319         3.128087         2.696921
 C         1.289788         2.980804         1.308644
 C        -0.068733         2.662661         0.609473
 H        -0.358468        -0.521485         1.428023
 H        -2.526986         1.757680        -0.391148
 H        -2.428283         0.107653         0.593177
 H        -2.155315         1.502761         2.731723
 H        -1.891649         4.015092         1.097974
 H         1.322506         3.726340         3.453493
 H         0.682969         2.034203         2.998187
 H         1.688173         3.997386         0.944567
 H         1.897328         2.022533         1.183518
 H         0.194958         2.792836        -0.418838
