19
Iteration:  3899
 O         0.145466         0.021160         0.926396
 C        -0.594246         1.295437         0.854831
 C        -2.061553         1.188754         0.382450
 C        -1.669267         1.852347         1.757207
 C        -1.190123         3.275195         1.561828
 O        -0.510341         3.766269         2.646853
 C         0.706662         3.084095         2.768394
 C         1.232283         2.978092         1.292568
 C        -0.060541         2.701055         0.607395
 H         0.717514        -0.122775         1.740265
 H        -2.267622         2.045244        -0.303516
 H        -2.342856         0.108124         0.160967
 H        -1.871398         1.482602         2.692943
 H        -1.995648         3.911780         1.196747
 H         1.347245         3.655109         3.442176
 H         0.596046         2.063282         3.238864
 H         1.674274         3.928618         1.009698
 H         1.992261         2.125893         1.156137
 H        -0.120759         3.167773        -0.399409
