19
Iteration:  3871
 O         0.191390         0.134399         0.906640
 C        -0.692479         1.291685         0.800847
 C        -2.141485         1.071855         0.418754
 C        -1.749012         1.906225         1.733275
 C        -1.097273         3.246956         1.526680
 O        -0.508483         3.761287         2.682441
 C         0.774533         3.084244         2.835088
 C         1.251854         2.941812         1.352083
 C        -0.011910         2.663660         0.535402
 H         1.005422         0.280727         1.526022
 H        -2.518844         1.653052        -0.345659
 H        -2.501812         0.009969         0.505395
 H        -2.451635         1.494459         2.615316
 H        -1.853754         3.910433         1.087413
 H         1.399316         3.708460         3.470816
 H         0.576395         2.129929         3.313522
 H         1.592407         3.968245         1.055790
 H         2.081455         2.314952         1.172107
 H        -0.012943         3.185343        -0.448546
