19
Iteration:  1871charge 0 multiplicity 1
 O         0.231814         0.166904         1.039610
 C        -0.635070         1.282659         0.795039
 C        -2.094584         1.199215         0.416596
 C        -1.817455         1.863892         1.722040
 C        -1.185425         3.221533         1.478801
 O        -0.519014         3.630384         2.675897
 C         0.840595         3.263115         2.771441
 C         1.203265         2.917822         1.380014
 C        -0.025423         2.615562         0.586932
 H         0.058110        -0.547883         0.389314
 H        -2.484397         1.772637        -0.514536
 H        -2.548555         0.275883         0.584105
 H        -2.244682         1.599542         2.692652
 H        -1.734039         4.062090         0.949976
 H         1.552355         4.097375         2.963918
 H         0.945504         2.364514         3.435431
 H         1.656822         3.819318         1.095175
 H         1.991869         2.130939         1.451293
 H         0.224356         2.767929        -0.491067
