19
Iteration:  4880
 O         0.092650        -0.040352         0.825821
 C        -0.606329         1.143691         0.755044
 C        -2.025185         1.252488         0.359743
 C        -1.790771         1.826879         1.722559
 C        -1.171422         3.241088         1.535595
 O        -0.548415         3.740478         2.690294
 C         0.772564         3.298885         2.839775
 C         1.290338         3.036199         1.442824
 C        -0.019983         2.577635         0.665371
 H         0.682837         0.134881         1.566355
 H        -2.242579         1.980244        -0.451530
 H        -2.542022         0.429535         0.481078
 H        -2.305930         1.382525         2.545225
 H        -1.742743         4.023070         1.075089
 H         1.402179         4.109671         3.216475
 H         0.922616         2.371652         3.375596
 H         1.715813         4.027928         1.089782
 H         2.211655         2.415388         1.283429
 H         0.045211         2.854034        -0.486526
