19
Iteration:  3444
 O         0.084297         0.044445         0.824604
 C        -0.630631         1.240813         0.812798
 C        -2.103003         1.169796         0.404486
 C        -1.769935         1.751651         1.755816
 C        -1.104898         3.175671         1.520966
 O        -0.560258         3.798472         2.688306
 C         0.799400         3.290429         2.849973
 C         1.300700         2.999469         1.382600
 C        -0.011862         2.659980         0.595493
 H         0.632109         0.205899         1.656266
 H        -2.518662         1.825800        -0.399147
 H        -2.455852         0.143667         0.078672
 H        -2.252789         1.395344         2.773513
 H        -1.706949         3.972638         1.068776
 H         1.527541         3.955061         3.407974
 H         0.749171         2.370525         3.448376
 H         1.986845         3.718518         0.860946
 H         2.018747         2.094680         1.347525
 H         0.123298         2.841420        -0.511589
