19
Iteration:   573charge 0 multiplicity 1
 O         0.161688        -0.009493         0.946373
 C        -0.637596         1.216983         0.816972
 C        -2.152479         1.136913         0.408751
 C        -1.726247         1.878965         1.677845
 C        -1.148673         3.228409         1.524415
 O        -0.569280         3.824622         2.676120
 C         0.856516         3.335661         2.772043
 C         1.316604         2.958832         1.377435
 C         0.036652         2.622648         0.645941
 H        -0.554503        -0.674613         0.746064
 H        -2.610220         1.667610        -0.471794
 H        -2.745229         0.148259         0.683540
 H        -2.136978         1.451015         2.642840
 H        -1.931258         3.862998         1.056756
 H         1.326593         4.151091         3.273530
 H         1.020106         2.433484         3.444336
 H         1.817650         3.782764         0.814527
 H         2.047184         2.118823         1.472951
 H         0.010273         2.943605        -0.494401
