19
Iteration:  2980
 O         0.119871         0.065099         0.919808
 C        -0.631208         1.289121         0.903847
 C        -1.992828         1.154119         0.416929
 C        -1.716894         1.850828         1.773164
 C        -1.202834         3.311479         1.479574
 O        -0.567042         3.734866         2.675893
 C         0.782861         3.121669         2.805621
 C         1.230953         2.970129         1.323853
 C        -0.013521         2.609750         0.546979
 H         1.044680         0.218972         1.295105
 H        -2.266115         1.860328        -0.237598
 H        -2.703022         0.264246         0.383876
 H        -2.349967         1.518511         2.626468
 H        -1.851733         4.075111         0.882330
 H         1.456560         3.804577         3.273574
 H         0.837875         2.178036         3.346119
 H         1.657686         3.918275         1.021992
 H         2.028932         2.187812         1.156127
 H         0.068541         2.949682        -0.470917
