19
Iteration:  1233
 O         0.178253         0.073539         0.994120
 C        -0.628616         1.161276         0.829366
 C        -2.075334         1.224331         0.399113
 C        -1.727039         1.767947         1.776493
 C        -1.207360         3.223767         1.542042
 O        -0.491455         3.896110         2.600550
 C         0.783500         3.218269         2.802125
 C         1.272533         2.907243         1.346928
 C        -0.070477         2.644311         0.649561
 H         0.583911         0.030847         0.104581
 H        -2.309607         1.822459        -0.483656
 H        -2.676964         0.300301         0.614054
 H        -2.174830         1.375714         2.633676
 H        -1.942511         3.951103         1.052062
 H         1.450701         3.892447         3.260994
 H         0.566306         2.165412         3.129087
 H         1.837419         3.698422         0.830907
 H         1.814625         1.938764         1.498733
 H        -0.049450         3.012611        -0.486898
