19
Iteration:   829
 O         0.193683         0.114595         1.052277
 C        -0.686538         1.231180         0.838000
 C        -2.025416         1.127737         0.387174
 C        -1.711587         1.830036         1.721558
 C        -1.110670         3.280633         1.521137
 O        -0.424559         3.871837         2.644036
 C         0.801532         3.149752         2.800005
 C         1.176890         2.886975         1.388370
 C        -0.147766         2.652469         0.475599
 H        -0.429920        -0.673171         0.914922
 H        -2.415091         1.796159        -0.378098
 H        -2.610841         0.111300         0.455620
 H        -2.200673         1.445141         2.529207
 H        -1.912001         3.912437         1.151618
 H         1.546923         3.779675         3.271213
 H         0.711452         2.321779         3.533388
 H         1.609201         3.844959         0.973014
 H         2.090572         2.257451         1.214889
 H         0.008071         2.987256        -0.578185
