19
Iteration:   517
 O         0.172511         0.036087         1.095906
 C        -0.668675         1.191106         0.791598
 C        -2.065815         1.163049         0.392908
 C        -1.749273         1.811561         1.764952
 C        -1.146676         3.256660         1.566017
 O        -0.435753         3.936840         2.619751
 C         0.749892         3.159947         2.775003
 C         1.249715         2.954301         1.323219
 C        -0.066978         2.628436         0.572683
 H         0.795702        -0.027306         0.288108
 H        -2.315331         1.846276        -0.382428
 H        -2.639825         0.141503         0.322093
 H        -2.336657         1.448300         2.484532
 H        -1.864606         3.958976         1.113324
 H         1.353513         3.743695         3.474265
 H         0.484149         2.158722         3.155633
 H         1.817059         3.678317         0.813317
 H         1.874014         1.999511         1.363332
 H        -0.325036         2.974556        -0.501492
