19
Iteration:  4177charge 0 multiplicity 1
 O         0.120524         0.023153         0.907913
 C        -0.635020         1.176678         0.718134
 C        -2.079014         1.205756         0.353319
 C        -1.667008         1.836051         1.736026
 C        -1.146671         3.256770         1.556764
 O        -0.585393         3.747987         2.716223
 C         0.791794         3.182984         2.799944
 C         1.270792         3.038430         1.369979
 C        -0.035172         2.671139         0.617523
 H         0.427222         0.024769         1.806405
 H        -2.429179         1.727164        -0.485341
 H        -2.477953         0.219438         0.666662
 H        -2.123776         1.352457         2.639837
 H        -1.881224         3.919454         1.110898
 H         1.500201         3.841903         3.270885
 H         0.887757         2.265642         3.363485
 H         1.702245         4.077599         0.993079
 H         2.073639         2.355480         1.065855
 H         0.010975         2.925726        -0.434973
