19
Iteration:  3006charge 0 multiplicity 1
 O         0.034606         0.005388         0.967619
 C        -0.618305         1.237335         0.788958
 C        -2.014058         1.138174         0.326286
 C        -1.767797         1.802942         1.687858
 C        -1.129184         3.137328         1.638107
 O        -0.478634         3.819152         2.653530
 C         0.781750         3.175030         2.775970
 C         1.279438         3.138881         1.306436
 C        -0.009124         2.642420         0.653060
 H         0.398981        -0.078534         1.887398
 H        -2.437688         1.872713        -0.573054
 H        -2.548667         0.247177         0.519889
 H        -2.268672         1.418918         2.551898
 H        -1.811520         3.863075         1.061352
 H         1.477149         3.774246         3.418308
 H         0.737070         2.086858         3.081362
 H         1.591447         4.185431         0.950844
 H         2.059378         2.409493         1.171041
 H        -0.112678         3.222972        -0.322569
