19
Iteration:   374charge 0 multiplicity 1
 O         0.142085         0.126561         0.972904
 C        -0.642484         1.281029         0.825497
 C        -2.084128         1.127180         0.436747
 C        -1.664172         1.833185         1.781688
 C        -1.150576         3.211053         1.459507
 O        -0.481265         3.831620         2.571672
 C         0.713235         3.244238         2.822080
 C         1.268835         2.900490         1.416066
 C         0.008716         2.577994         0.578445
 H        -0.547790        -0.522820         0.806729
 H        -2.601477         1.794753        -0.329699
 H        -2.584386         0.221165         0.497509
 H        -2.024125         1.395119         2.696468
 H        -1.901971         3.931238         1.103574
 H         1.288686         4.037680         3.356963
 H         0.779879         2.306804         3.418325
 H         1.652716         3.732320         0.825681
 H         2.108833         2.150519         1.361733
 H         0.123533         2.989381        -0.483589
