19
Iteration:  3465
 O         0.118712         0.052809         0.813798
 C        -0.646022         1.237615         0.779577
 C        -2.035133         1.176049         0.473330
 C        -1.687205         1.867783         1.700843
 C        -1.191031         3.252741         1.481805
 O        -0.564185         3.729059         2.682703
 C         0.755997         3.263292         2.795305
 C         1.253291         2.864116         1.443127
 C        -0.016455         2.652105         0.613613
 H         0.952362         0.161032         1.238506
 H        -2.452662         1.598051        -0.458393
 H        -2.640027         0.239503         0.775027
 H        -2.110753         1.638279         2.765647
 H        -1.910797         4.116066         1.354778
 H         1.407683         4.083403         3.299400
 H         0.781008         2.510947         3.585234
 H         1.759955         3.733782         0.900463
 H         2.062747         2.080187         1.346707
 H         0.322086         3.022834        -0.404113
