19
Iteration:   719
 O         0.078387         0.097601         1.138899
 C        -0.608330         1.219875         0.791283
 C        -2.036705         1.261724         0.438043
 C        -1.678941         1.730351         1.754610
 C        -1.136026         3.212493         1.511339
 O        -0.459235         3.862932         2.607313
 C         0.747519         3.161457         2.762747
 C         1.178902         2.930541         1.309626
 C        -0.068209         2.643085         0.567285
 H         0.550080        -0.286844         0.382248
 H        -2.446626         2.028597        -0.293278
 H        -2.559235         0.257708         0.309793
 H        -2.076802         1.221063         2.517806
 H        -1.885893         3.914582         1.201288
 H         1.413557         3.936010         3.180790
 H         0.839146         2.352145         3.470424
 H         1.698823         3.782944         0.748320
 H         1.847767         2.047096         1.292656
 H         0.184787         2.931921        -0.551342
