19
Iteration:  3695charge 0 multiplicity 1
 O         0.119351         0.116808         0.861647
 C        -0.635471         1.246925         0.870818
 C        -2.032131         1.162066         0.372504
 C        -1.678361         1.822227         1.812393
 C        -1.193095         3.227995         1.431110
 O        -0.502424         3.857010         2.688642
 C         0.709922         3.105414         2.796134
 C         1.231717         2.931146         1.350924
 C        -0.031903         2.619157         0.647219
 H         1.000392         0.424200         1.207304
 H        -2.370957         1.762889        -0.469241
 H        -2.466592         0.163901         0.323803
 H        -2.046412         1.570076         2.788961
 H        -1.886696         3.978503         1.046220
 H         1.450371         3.574147         3.422881
 H         0.594474         2.123185         3.233025
 H         1.706172         3.836424         0.960213
 H         1.920766         2.130840         1.409028
 H         0.027488         2.941596        -0.295277
