19
Iteration:  1790charge 0 multiplicity 1
 O         0.151837         0.103759         1.017354
 C        -0.577595         1.257847         0.791024
 C        -2.100404         1.206730         0.467684
 C        -1.657371         1.847629         1.733026
 C        -1.185147         3.266538         1.511438
 O        -0.572348         3.764690         2.673568
 C         0.704425         3.236206         2.760151
 C         1.250589         2.896887         1.353302
 C         0.011052         2.589305         0.565457
 H         0.489064        -0.078019         0.158799
 H        -2.695823         1.884769        -0.254360
 H        -2.409521        -0.004119         0.553200
 H        -2.148185         1.550200         2.714597
 H        -1.778636         3.997821         0.955642
 H         1.332176         3.800384         3.425778
 H         0.788321         2.199003         3.164273
 H         1.845849         3.813471         0.930201
 H         2.071364         2.091148         1.433510
 H         0.136491         2.704753        -0.507133
