19
Iteration:  2634charge 0 multiplicity 1
 O         0.148680         0.058793         0.758766
 C        -0.618045         1.196981         0.838132
 C        -2.064129         1.244899         0.490454
 C        -1.623774         1.732116         1.821293
 C        -1.083501         3.159387         1.571734
 O        -0.533910         3.971078         2.591942
 C         0.658333         3.276924         2.824412
 C         1.231496         2.914295         1.387067
 C         0.010691         2.570076         0.571630
 H        -0.247384        -0.672361         1.344668
 H        -2.492362         1.942514        -0.342756
 H        -2.432665         0.221958         0.479625
 H        -2.042642         1.497372         2.762695
 H        -1.948850         3.808939         1.145830
 H         1.255554         3.809702         3.607328
 H         0.458331         2.387226         3.322128
 H         1.777038         3.802704         0.916145
 H         1.938752         2.027832         1.323546
 H         0.024539         3.031464        -0.428971
