19
Iteration:  4166charge 0 multiplicity 1
 O         0.131127         0.032584         0.883250
 C        -0.648837         1.245173         0.814782
 C        -2.080673         1.175282         0.367122
 C        -1.700286         1.782127         1.685986
 C        -1.184901         3.199367         1.509707
 O        -0.494887         3.736478         2.712999
 C         0.826619         3.215572         2.834462
 C         1.236477         3.044532         1.356230
 C        -0.018108         2.671713         0.581391
 H         0.333248        -0.046056         1.880361
 H        -2.431113         1.724398        -0.476156
 H        -2.730806         0.304900         0.461799
 H        -2.084751         1.482983         2.711566
 H        -1.788697         4.036016         1.262495
 H         1.196293         3.968417         3.476015
 H         0.781213         2.246464         3.318136
 H         1.521976         4.075626         0.851471
 H         2.025887         2.294614         1.399506
 H         0.088814         3.060897        -0.421802
