19
Iteration:   718charge 0 multiplicity 1
 O         0.089465         0.097690         1.133476
 C        -0.607870         1.218926         0.795612
 C        -2.038858         1.261799         0.442770
 C        -1.677644         1.744808         1.754707
 C        -1.130138         3.208086         1.513230
 O        -0.461813         3.867437         2.604962
 C         0.739500         3.159070         2.768593
 C         1.169263         2.919744         1.305072
 C        -0.067965         2.638498         0.559284
 H         0.547617        -0.293620         0.413579
 H        -2.446074         2.061946        -0.306655
 H        -2.543003         0.292126         0.297667
 H        -2.070047         1.191107         2.536488
 H        -1.888147         3.936461         1.233513
 H         1.402332         3.902467         3.182453
 H         0.839390         2.362354         3.485503
 H         1.714946         3.795647         0.765245
 H         1.845300         2.064358         1.265087
 H         0.170420         2.901912        -0.542428
