19
Iteration:  3124
 O         0.119666         0.081430         0.830743
 C        -0.560339         1.264085         0.763569
 C        -2.038867         1.268916         0.515123
 C        -1.683755         1.783609         1.843998
 C        -1.168235         3.156694         1.492015
 O        -0.488391         3.866388         2.546368
 C         0.647667         3.137242         2.826644
 C         1.246945         2.923771         1.422157
 C        -0.049071         2.618311         0.605863
 H         0.829914         0.161711         1.545759
 H        -2.437782         1.877366        -0.359890
 H        -2.335649         0.277557         0.458043
 H        -2.133976         1.339370         2.771361
 H        -1.855388         3.930328         1.038103
 H         1.339139         3.794279         3.450860
 H         0.454008         2.113633         3.225614
 H         1.751133         3.926669         1.099656
 H         1.912582         2.053641         1.376243
 H        -0.104737         2.994716        -0.473346
