19
Iteration:  3320charge 0 multiplicity 1
 O         0.168743         0.163056         0.932176
 C        -0.591062         1.244538         0.832143
 C        -1.974936         1.195540         0.431319
 C        -1.791934         1.794697         1.760153
 C        -1.209731         3.237612         1.499549
 O        -0.488593         3.839018         2.636450
 C         0.738182         3.052685         2.750829
 C         1.234161         2.898137         1.382152
 C        -0.085686         2.682344         0.546820
 H         0.889094         0.290065         1.614939
 H        -2.277617         1.914904        -0.320366
 H        -2.478823         0.173258         0.249277
 H        -2.130053         1.408460         2.776862
 H        -2.004923         3.990750         1.231922
 H         1.436755         3.499415         3.560146
 H         0.592345         2.144541         3.266350
 H         1.832714         3.862633         1.147414
 H         1.792295         1.986068         1.258314
 H        -0.110479         2.898881        -0.517943
