19
Iteration:  1221
 O         0.139462        -0.029902         0.950283
 C        -0.631055         1.220051         0.840252
 C        -2.098769         1.172173         0.404549
 C        -1.723482         1.796130         1.730108
 C        -1.114582         3.201341         1.578839
 O        -0.479108         3.887885         2.650991
 C         0.749763         3.311498         2.746949
 C         1.222979         2.912688         1.379750
 C        -0.050917         2.640338         0.600346
 H         0.742214        -0.178333         0.244984
 H        -2.532569         1.819964        -0.377219
 H        -2.542259         0.216122         0.369458
 H        -2.247595         1.382505         2.554501
 H        -1.855736         3.974976         1.229778
 H         1.364754         3.999793         3.283867
 H         0.802751         2.577567         3.616253
 H         1.938305         3.705282         0.985440
 H         1.879343         2.033214         1.369570
 H        -0.110051         3.153581        -0.455365
