19
Iteration:   347charge 0 multiplicity 1
 O         0.209503         0.022015         0.933027
 C        -0.644543         1.210543         0.760795
 C        -2.161027         1.071954         0.521652
 C        -1.687240         1.896352         1.749398
 C        -1.105478         3.286493         1.429719
 O        -0.587017         3.941974         2.622504
 C         0.737726         3.201492         2.810182
 C         1.354757         2.878008         1.418884
 C         0.025248         2.676312         0.586705
 H        -0.308402        -0.636909         0.485720
 H        -2.775991         1.533512        -0.188335
 H        -2.596236         0.037918         0.856009
 H        -2.251217         1.518274         2.687997
 H        -1.832952         4.011939         0.988008
 H         1.280095         3.876648         3.496924
 H         0.644797         2.239283         3.343119
 H         1.830562         3.729133         0.860472
 H         1.944292         1.965354         1.425621
 H         0.133101         3.120850        -0.366960
