19
Iteration:  1208
 O         0.053414        -0.046654         0.948070
 C        -0.639259         1.231651         0.755808
 C        -2.070417         1.176320         0.368734
 C        -1.692612         1.765558         1.784727
 C        -1.185906         3.229482         1.540187
 O        -0.577034         3.865256         2.670449
 C         0.901985         3.383619         2.874122
 C         1.265668         2.884640         1.391980
 C        -0.025878         2.623307         0.584218
 H         0.656357        -0.069554         0.116162
 H        -2.508877         1.790477        -0.427463
 H        -2.396907         0.239387         0.486641
 H        -1.953305         1.417161         2.851468
 H        -1.891715         3.896420         1.056157
 H         1.491347         4.289683         3.034554
 H         0.857686         2.503576         3.478755
 H         1.649411         3.817986         0.811488
 H         1.955853         2.084186         1.399916
 H         0.120613         2.859554        -0.486349
