19
Iteration:  1746charge 0 multiplicity 1
 O         0.192090         0.097429         1.009777
 C        -0.651039         1.224414         0.750211
 C        -2.124206         1.212230         0.333835
 C        -1.728849         1.714523         1.702111
 C        -1.199362         3.247951         1.594246
 O        -0.503997         3.913982         2.650285
 C         0.804690         3.355631         2.823462
 C         1.262173         2.831762         1.379077
 C        -0.047851         2.555106         0.607711
 H         0.466727        -0.372150         0.229397
 H        -2.529670         1.865495        -0.502532
 H        -2.421194         0.109064         0.559026
 H        -2.055109         1.209820         2.661105
 H        -2.075697         3.804256         1.384274
 H         1.447995         4.096275         3.289399
 H         0.846221         2.489788         3.461674
 H         1.925759         3.499426         0.751492
 H         1.773607         1.851661         1.468583
 H         0.077557         3.037410        -0.340191
