19
Iteration:  1453charge 0 multiplicity 1
 O         0.261107         0.133694         0.891388
 C        -0.599486         1.235810         0.780478
 C        -2.113489         1.129234         0.473665
 C        -1.705763         1.778727         1.736778
 C        -1.210163         3.196322         1.557933
 O        -0.416476         4.013178         2.551846
 C         0.718989         3.165574         2.823149
 C         1.229808         2.859293         1.401585
 C        -0.077282         2.657303         0.611292
 H        -0.301312        -0.597490         0.998103
 H        -2.734233         1.515429        -0.309646
 H        -2.485425         0.140618         0.602807
 H        -2.126560         1.226020         2.657091
 H        -1.975299         3.975177         1.162351
 H         1.386157         3.712968         3.420012
 H         0.349531         2.283664         3.491975
 H         1.773940         3.740049         1.037332
 H         1.809859         1.819416         1.439503
 H         0.143924         3.047195        -0.409941
