19
Iteration:  3284
 O         0.122163         0.011811         0.890860
 C        -0.647976         1.189760         0.746949
 C        -2.051943         1.174833         0.446117
 C        -1.691852         1.821350         1.729267
 C        -1.096114         3.181050         1.480671
 O        -0.558865         3.856243         2.751310
 C         0.771571         3.167340         2.802646
 C         1.217474         3.080024         1.383500
 C        -0.008468         2.634121         0.550643
 H         0.198824        -0.091021         1.894569
 H        -2.247435         1.962091        -0.297372
 H        -2.569044         0.263028         0.345784
 H        -2.104131         1.293577         2.648283
 H        -1.821383         4.031079         1.012914
 H         1.445495         3.731825         3.375450
 H         0.638503         2.150513         3.119185
 H         1.649831         3.936519         0.961367
 H         2.030080         2.329847         1.276800
 H         0.105595         2.985766        -0.484698
