19
Iteration:   322charge 0 multiplicity 1
 O         0.187443         0.123868         0.923701
 C        -0.628493         1.226699         0.890257
 C        -2.005216         1.195601         0.504010
 C        -1.692097         1.873688         1.879715
 C        -1.114185         3.231173         1.435800
 O        -0.538861         3.960031         2.505074
 C         0.735547         3.131832         2.822562
 C         1.187621         2.845640         1.471382
 C        -0.052305         2.552705         0.517351
 H        -0.025200        -0.430825         0.121282
 H        -2.372539         1.871537        -0.367965
 H        -2.383335         0.173258         0.503765
 H        -2.072543         1.426767         2.678258
 H        -1.935418         3.884866         1.107840
 H         1.327803         3.836208         3.322169
 H         0.649745         2.263551         3.569857
 H         1.612080         3.785660         0.918533
 H         1.779002         1.866991         1.371905
 H         0.129637         2.766665        -0.529476
