19
Iteration:  2753charge 0 multiplicity 1
 O         0.117149         0.114432         1.052439
 C        -0.592940         1.250176         0.834150
 C        -1.998001         1.228378         0.412127
 C        -1.755835         1.849355         1.734875
 C        -1.169250         3.235925         1.519620
 O        -0.516744         3.744986         2.634046
 C         0.766927         3.048897         2.744101
 C         1.260944         3.023574         1.314765
 C        -0.073109         2.686022         0.503892
 H         0.649993         0.041789         1.833370
 H        -2.513900         1.832972        -0.393103
 H        -2.350553         0.047921         0.426772
 H        -2.180647         1.270977         2.560664
 H        -1.804003         4.013248         1.187619
 H         1.489092         3.427353         3.455342
 H         0.616485         1.945390         3.138269
 H         1.667740         4.078389         1.206500
 H         2.038491         2.240160         1.213066
 H        -0.232444         2.952110        -0.570898
