19
Iteration:  3995charge 0 multiplicity 1
 O         0.091609         0.057937         0.819631
 C        -0.614318         1.184820         0.823634
 C        -2.039724         1.199186         0.382451
 C        -1.671562         1.790642         1.699098
 C        -1.184531         3.161361         1.564029
 O        -0.544758         3.822925         2.746549
 C         0.797154         3.287656         2.834198
 C         1.219720         2.910758         1.393514
 C        -0.046239         2.650720         0.547177
 H         0.874946        -0.052719         1.457356
 H        -2.285495         2.081233        -0.312671
 H        -2.491760         0.175383         0.406276
 H        -2.122752         1.609664         2.596861
 H        -1.897167         3.948315         1.106951
 H         1.350680         4.210612         3.321439
 H         0.942829         2.482586         3.557210
 H         1.703441         3.709697         0.894069
 H         1.891211         2.056585         1.255280
 H         0.005083         2.923266        -0.467207
