19
Iteration:  2882
 O         0.032555         0.003507         0.763775
 C        -0.625783         1.206568         0.808840
 C        -2.045343         1.274748         0.436371
 C        -1.654509         1.734198         1.819963
 C        -1.061570         3.179008         1.538600
 O        -0.570137         3.837174         2.594086
 C         0.719922         3.313132         2.851854
 C         1.267817         3.031629         1.382817
 C         0.017567         2.532393         0.648522
 H         0.716193        -0.116351         1.488476
 H        -2.521172         1.902737        -0.207834
 H        -2.516562         0.223210         0.444777
 H        -2.252755         1.490590         2.729781
 H        -1.710466         3.890713         0.934797
 H         1.179781         4.032697         3.481731
 H         0.805177         2.321691         3.344741
 H         1.659530         3.894311         0.936038
 H         2.112100         2.327274         1.476352
 H        -0.038578         2.784399        -0.400594
