19
Iteration:   190
 O         0.201516         0.062812         1.159644
 C        -0.604710         1.250150         0.911975
 C        -2.087834         1.169460         0.296224
 C        -1.825212         1.822599         1.655127
 C        -1.193507         3.226606         1.552567
 O        -0.501697         3.808673         2.677509
 C         0.815071         3.150711         2.705824
 C         1.309338         3.007876         1.258583
 C        -0.030490         2.701288         0.577185
 H        -0.334404        -0.778549         1.338701
 H        -2.333080         1.623735        -0.694942
 H        -2.703990         0.199498         0.403220
 H        -2.277793         1.334876         2.580643
 H        -1.740384         4.134075         1.152747
 H         1.458772         3.728070         3.341263
 H         0.662965         2.161424         3.235581
 H         1.939671         3.862762         0.802397
 H         2.101333         2.167291         1.122150
 H        -0.302582         3.149749        -0.352086
