19
Iteration:  2942charge 0 multiplicity 1
 O         0.153769         0.182752         0.877226
 C        -0.626423         1.230521         0.804650
 C        -2.151245         1.020433         0.385517
 C        -1.730608         1.787825         1.735679
 C        -1.203316         3.280628         1.557155
 O        -0.519771         3.934948         2.629879
 C         0.800451         3.091060         2.820013
 C         1.276505         2.853769         1.424794
 C        -0.000169         2.652838         0.574079
 H         0.958929         0.405403         1.334444
 H        -2.560775         1.862558        -0.343445
 H        -2.620137         0.103638         0.550015
 H        -2.012974         1.425469         2.698503
 H        -1.802450         4.041277         1.190557
 H         1.355928         3.917984         3.327408
 H         0.490872         2.243320         3.452566
 H         1.787048         3.743385         0.939199
 H         1.907928         1.966090         1.433665
 H         0.218982         2.870416        -0.518199
