19
Iteration:  1201charge 0 multiplicity 1
 O        -0.015618         0.017444         0.934420
 C        -0.603848         1.166375         0.763627
 C        -2.064537         1.203203         0.407191
 C        -1.647224         1.776964         1.792502
 C        -1.208894         3.202021         1.470588
 O        -0.582559         3.836243         2.685971
 C         0.888349         3.410446         2.827003
 C         1.278577         2.932038         1.391851
 C        -0.019492         2.569327         0.632708
 H         0.502551        -0.070567         0.060755
 H        -2.520315         1.718391        -0.479076
 H        -2.545478         0.144636         0.425523
 H        -1.842195         1.230676         2.641214
 H        -1.968989         3.957243         1.062202
 H         1.413653         4.282061         3.210373
 H         1.087781         2.576148         3.640337
 H         1.840428         3.669878         0.849054
 H         2.107687         2.154213         1.479589
 H         0.262439         3.016837        -0.427888
