19
Iteration:   163
 O         0.207407         0.254731         1.074784
 C        -0.614065         1.283375         0.875841
 C        -2.085882         1.143000         0.451621
 C        -1.710821         1.904169         1.728962
 C        -1.174847         3.249658         1.390193
 O        -0.521375         3.734267         2.655860
 C         0.740807         3.047015         2.811652
 C         1.223219         2.927969         1.322148
 C         0.007635         2.571740         0.454506
 H        -0.248728        -0.534796         1.506817
 H        -2.410416         1.610208        -0.469061
 H        -2.552689         0.240667         0.580252
 H        -2.163101         1.723432         2.661121
 H        -1.718322         4.084250         1.017286
 H         1.491566         3.703293         3.384172
 H         0.713928         2.101543         3.376296
 H         1.528641         3.934255         1.020818
 H         2.043414         2.275802         1.229268
 H        -0.035354         2.983192        -0.609433
