19
Iteration:  3732charge 0 multiplicity 1
 O         0.144029         0.057040         0.869159
 C        -0.657062         1.216070         0.763754
 C        -2.113331         1.188285         0.362170
 C        -1.680733         1.808732         1.723437
 C        -1.181613         3.185536         1.504671
 O        -0.514030         3.852105         2.724124
 C         0.799662         3.249027         2.806503
 C         1.228513         2.922580         1.448921
 C        -0.057781         2.610390         0.640036
 H         1.006635         0.373114         1.072794
 H        -2.363444         1.958472        -0.428717
 H        -2.487025         0.079962         0.350932
 H        -2.086343         1.537814         2.746968
 H        -1.939411         3.927086         1.181768
 H         1.536810         4.015814         3.249040
 H         0.719281         2.339850         3.476795
 H         1.768289         3.682576         0.887640
 H         1.810088         1.998217         1.276151
 H         0.150115         2.836682        -0.492283
