19
Iteration:  4231charge 0 multiplicity 1
 O         0.201162         0.085945         0.868331
 C        -0.599074         1.209928         0.801681
 C        -2.038573         1.207378         0.407219
 C        -1.843349         1.792680         1.757516
 C        -1.130927         3.229438         1.554296
 O        -0.488759         3.852543         2.688605
 C         0.702383         3.151532         2.853395
 C         1.222031         2.934221         1.340947
 C        -0.047486         2.646250         0.586633
 H         0.978240         0.298131         1.343302
 H        -2.458349         1.802306        -0.474633
 H        -2.564088         0.146128         0.383774
 H        -2.291133         1.493527         2.724616
 H        -1.816891         3.879262         1.066040
 H         1.503398         3.693738         3.325967
 H         0.637188         2.070539         3.220709
 H         1.574199         3.918001         0.899945
 H         2.022022         2.210604         1.205371
 H         0.088083         2.881109        -0.419005
