19
Iteration:  4867charge 0 multiplicity 1
 O         0.074392        -0.045071         0.798115
 C        -0.609742         1.227502         0.853575
 C        -2.016778         1.215168         0.384277
 C        -1.810202         1.844724         1.765195
 C        -1.187788         3.219627         1.458250
 O        -0.574779         3.728685         2.727229
 C         0.827152         3.271070         2.842158
 C         1.270924         3.067611         1.397546
 C         0.070482         2.592720         0.626098
 H         0.896040        -0.051566         1.391990
 H        -2.411477         1.823683        -0.479156
 H        -2.492085         0.281207         0.221216
 H        -2.440087         1.645777         2.534541
 H        -1.825553         4.018363         1.044783
 H         1.314343         4.046763         3.570539
 H         0.788466         2.383877         3.466445
 H         1.572235         3.988288         0.806441
 H         2.062985         2.214032         1.452962
 H         0.260393         2.907100        -0.535000
