19
Iteration:  1336
 O         0.243392         0.067879         1.169195
 C        -0.650101         1.201463         0.865598
 C        -2.085180         1.321005         0.349173
 C        -1.796374         1.780540         1.705035
 C        -1.164792         3.187231         1.588734
 O        -0.543944         3.764354         2.712690
 C         0.777936         3.239549         2.676642
 C         1.266911         2.952901         1.278652
 C        -0.023003         2.623381         0.540333
 H         0.296224        -0.165870         0.246466
 H        -2.432341         2.111399        -0.443632
 H        -2.716094         0.438976         0.277024
 H        -2.235153         1.263719         2.661470
 H        -1.830708         3.860557         1.094504
 H         1.494906         3.867277         3.239504
 H         0.884013         2.319162         3.155378
 H         1.753035         3.817218         0.789485
 H         1.875278         2.088761         1.176717
 H         0.069537         2.874345        -0.533573
