19
Iteration:   749charge 0 multiplicity 1
 O         0.018645         0.005206         1.113166
 C        -0.670363         1.178220         0.833565
 C        -2.079919         1.119695         0.369451
 C        -1.841014         1.825064         1.659463
 C        -1.085177         3.257632         1.553498
 O        -0.503161         3.767275         2.742510
 C         0.839283         3.325892         2.808934
 C         1.371290         3.039998         1.245733
 C         0.021725         2.631245         0.555859
 H         0.149669        -0.367477         0.163330
 H        -2.418756         1.697773        -0.583891
 H        -2.465892         0.123810         0.458186
 H        -2.162989         1.416210         2.652709
 H        -1.843894         3.992684         1.138251
 H         1.292422         4.237704         3.090951
 H         0.962020         2.445655         3.493046
 H         1.721595         3.945187         0.633582
 H         2.008449         2.194600         1.248437
 H         0.090390         2.883773        -0.481405
