19
Iteration:  1228charge 0 multiplicity 1
 O         0.149846         0.039465         0.980024
 C        -0.577917         1.134817         0.837451
 C        -2.102788         1.207983         0.410195
 C        -1.730197         1.801448         1.755106
 C        -1.165867         3.213468         1.541914
 O        -0.459431         3.891708         2.626875
 C         0.735689         3.252291         2.774252
 C         1.248575         2.916443         1.350685
 C        -0.074207         2.655018         0.630671
 H         0.650249         0.040825         0.103491
 H        -2.422628         1.786754        -0.468876
 H        -2.636266         0.262748         0.463565
 H        -2.293409         1.224803         2.589368
 H        -1.860347         3.929630         1.180150
 H         1.417765         4.056691         3.212220
 H         0.652799         2.286593         3.287606
 H         1.956930         3.678802         0.906606
 H         1.820655         2.015091         1.517038
 H        -0.077707         3.107867        -0.291336
