19
Iteration:  1126charge 0 multiplicity 1
 O         0.232313         0.112750         0.869202
 C        -0.596968         1.184556         0.837105
 C        -2.066148         1.162240         0.432061
 C        -1.808990         1.744664         1.750297
 C        -1.205295         3.249762         1.554202
 O        -0.505267         3.905606         2.597905
 C         0.831590         3.252046         2.805968
 C         1.303441         2.903126         1.387681
 C        -0.115281         2.632994         0.645614
 H        -0.391157        -0.627753         0.938130
 H        -2.458486         1.816176        -0.424811
 H        -2.643360         0.182308         0.282689
 H        -2.233336         1.432000         2.641242
 H        -1.864077         4.051208         1.136596
 H         1.548707         3.912424         3.314784
 H         0.700478         2.474206         3.522861
 H         1.900903         3.702287         1.030132
 H         1.942442         1.925621         1.322614
 H         0.016501         2.758037        -0.387793
