19
Iteration:  4320charge 0 multiplicity 1
 O         0.154169        -0.023858         0.785416
 C        -0.562970         1.189993         0.783192
 C        -2.027636         1.263399         0.378412
 C        -1.797668         1.805230         1.788616
 C        -1.172925         3.173954         1.544568
 O        -0.501040         3.860134         2.634060
 C         0.785977         3.242432         2.838959
 C         1.237148         3.001934         1.444885
 C        -0.102596         2.578045         0.633360
 H         0.930812        -0.047435         1.313390
 H        -2.267117         2.008699        -0.400120
 H        -2.546981         0.183116         0.332598
 H        -2.198911         1.417624         2.652486
 H        -1.906105         3.951823         1.206995
 H         1.368618         3.982427         3.520505
 H         0.535748         2.295515         3.427703
 H         1.591175         3.983482         0.982661
 H         2.047318         2.339387         1.488790
 H        -0.064956         2.905453        -0.381373
