19
Iteration:  2046charge 0 multiplicity 1
 O         0.237314         0.135004         0.929393
 C        -0.603225         1.227936         0.834159
 C        -2.058475         1.225595         0.435226
 C        -1.769967         1.799820         1.853396
 C        -1.115941         3.225102         1.553963
 O        -0.541374         3.876611         2.607043
 C         0.735824         3.199413         2.726674
 C         1.253418         2.858671         1.396912
 C        -0.055716         2.597190         0.583286
 H        -0.127624        -0.614533         0.501794
 H        -2.400930         1.813357        -0.449162
 H        -2.520457         0.167815         0.294130
 H        -2.298352         1.463571         2.782263
 H        -1.859123         3.931391         1.068534
 H         1.473414         3.739022         3.221837
 H         0.623150         2.326137         3.324568
 H         1.724177         3.812550         1.004711
 H         2.045295         2.068292         1.311115
 H        -0.166366         2.974204        -0.434587
