19
Iteration:  2231
 O         0.179776         0.097369         0.979315
 C        -0.621358         1.209750         0.895632
 C        -1.999090         1.117435         0.355322
 C        -1.764836         1.795777         1.723685
 C        -1.172933         3.242660         1.546921
 O        -0.454241         3.900852         2.655939
 C         0.745460         3.176192         2.778561
 C         1.236628         2.989750         1.334604
 C        -0.090425         2.624381         0.607228
 H        -0.141330        -0.676808         0.584892
 H        -2.208240         1.879242        -0.436536
 H        -2.787305         0.278976         0.366082
 H        -2.129723         1.238384         2.530753
 H        -1.913106         3.959356         1.260326
 H         1.493021         3.585386         3.460777
 H         0.703486         2.196427         3.242125
 H         1.571830         3.943530         0.875992
 H         2.137158         2.346657         1.329975
 H        -0.077112         2.878492        -0.469660
