19
Iteration:   514
 O         0.177164         0.045356         1.089466
 C        -0.697265         1.187786         0.810983
 C        -2.038450         1.137437         0.382474
 C        -1.747758         1.834040         1.737026
 C        -1.155301         3.235101         1.570850
 O        -0.423430         3.961840         2.607784
 C         0.761587         3.151921         2.773253
 C         1.230075         2.928909         1.338105
 C        -0.081014         2.621439         0.567939
 H         0.777891         0.019545         0.382200
 H        -2.285700         1.914055        -0.342413
 H        -2.542337         0.259375         0.314254
 H        -2.357455         1.398386         2.567441
 H        -1.928894         3.913167         1.159581
 H         1.490502         3.648691         3.540175
 H         0.437954         2.199288         3.214449
 H         1.681902         3.760495         0.839812
 H         1.891548         2.048384         1.181466
 H        -0.230634         3.032574        -0.365597
