19
Iteration:  1389
 O         0.067704         0.011072         0.980491
 C        -0.686439         1.180719         0.775660
 C        -2.135164         1.113283         0.420275
 C        -1.692330         1.764135         1.707611
 C        -1.141309         3.220051         1.510857
 O        -0.515466         3.815425         2.693993
 C         0.818464         3.383875         2.823219
 C         1.348917         3.063106         1.369511
 C        -0.016566         2.602808         0.632999
 H         0.298161        -0.268469         0.081675
 H        -2.518534         1.756669        -0.386316
 H        -2.458865         0.114845         0.530380
 H        -2.232933         1.558240         2.704475
 H        -1.728143         3.987573         0.961846
 H         1.326470         4.082763         3.402434
 H         0.860866         2.300852         3.214395
 H         1.923211         3.772748         0.842178
 H         1.990708         2.148654         1.283180
 H         0.006623         2.851680        -0.490543
