19
Iteration:  2780
 O         0.180729         0.072052         1.007796
 C        -0.616857         1.242616         0.809764
 C        -2.032833         1.109845         0.366090
 C        -1.738396         1.882223         1.704643
 C        -1.209739         3.342311         1.576489
 O        -0.510895         3.824952         2.714782
 C         0.723553         3.053508         2.782551
 C         1.266471         2.948332         1.247160
 C        -0.013225         2.687301         0.527129
 H         0.282587        -0.252216         1.881269
 H        -2.632343         1.589657        -0.410351
 H        -2.279732         0.119307         0.529885
 H        -2.121663         1.339924         2.562145
 H        -1.936045         4.238760         1.318537
 H         1.492954         3.664608         3.402598
 H         0.555758         2.096930         3.224216
 H         1.541396         4.018102         1.095562
 H         2.053325         2.195205         1.016064
 H         0.034090         2.912979        -0.542953
