19
Iteration:  1493
 O         0.313308         0.143742         0.907031
 C        -0.632742         1.275041         0.847124
 C        -2.092864         1.241160         0.501942
 C        -1.776406         1.855157         1.729041
 C        -1.195707         3.251797         1.458295
 O        -0.603110         3.730828         2.657734
 C         0.757193         3.247771         2.752761
 C         1.290017         2.826555         1.358571
 C         0.042419         2.618316         0.578091
 H        -0.159824        -0.738781         1.111046
 H        -2.655902         1.755144        -0.303123
 H        -2.516058         0.201995         0.926605
 H        -2.345627         1.790250         2.689018
 H        -1.964905         3.960895         1.137610
 H         1.403934         4.036798         3.353878
 H         0.832337         2.307837         3.333105
 H         1.812579         3.659793         0.859983
 H         1.754345         1.843062         1.407780
 H         0.034595         2.870615        -0.460113
