19
Iteration:  3138charge 0 multiplicity 1
 O         0.151094         0.049805         0.769067
 C        -0.651030         1.219608         0.848174
 C        -2.045127         1.190789         0.445808
 C        -1.589145         1.804872         1.842587
 C        -1.147254         3.223340         1.543184
 O        -0.564683         3.949722         2.549766
 C         0.691270         3.068199         2.822344
 C         1.235245         2.913663         1.412657
 C         0.021848         2.638190         0.585731
 H         0.602933        -0.011601         1.622616
 H        -2.525290         1.951595        -0.201346
 H        -2.723500         0.197880         0.511143
 H        -2.071353         1.709797         2.871656
 H        -2.117750         3.775845         1.017306
 H         1.253945         3.568662         3.644349
 H         0.279268         2.270886         3.434519
 H         1.589554         3.927863         1.035307
 H         2.172142         2.349788         1.224290
 H         0.224046         3.027462        -0.473150
