19
Iteration:  2613
 O         0.208711         0.070906         0.746303
 C        -0.636294         1.215476         0.839398
 C        -2.021024         1.095944         0.508707
 C        -1.705245         1.838271         1.875399
 C        -1.213849         3.318560         1.474338
 O        -0.494893         3.924411         2.550549
 C         0.755111         3.192076         2.815244
 C         1.250359         2.878641         1.435546
 C        -0.039289         2.628964         0.654767
 H        -0.335102        -0.695579         0.633614
 H        -2.529684         1.673610        -0.253492
 H        -2.487590         0.127674         0.661242
 H        -2.139717         1.316225         2.658773
 H        -2.060759         3.987540         1.016450
 H         1.330724         3.915405         3.476701
 H         0.517035         2.441526         3.521220
 H         1.792263         3.843638         1.154809
 H         1.911088         1.982729         1.332542
 H         0.165260         2.940157        -0.392578
