19
Iteration:   603charge 0 multiplicity 1
 O         0.197628         0.069936         0.876958
 C        -0.649577         1.221989         0.979047
 C        -2.018588         1.257547         0.300608
 C        -1.792996         1.808829         1.789356
 C        -1.125344         3.137077         1.570605
 O        -0.428932         3.901468         2.577641
 C         0.782102         3.332771         2.787376
 C         1.169305         2.919883         1.352694
 C        -0.073081         2.516933         0.655125
 H        -0.302474        -0.712384         0.958121
 H        -2.211992         1.907193        -0.451074
 H        -2.627550         0.291254         0.267401
 H        -2.240704         1.328449         2.582575
 H        -1.934355         3.785360         1.177790
 H         1.422910         4.076929         3.356907
 H         0.900733         2.427131         3.399835
 H         1.624194         3.685893         0.847717
 H         1.900077         2.078559         1.498558
 H        -0.071281         2.721227        -0.323630
