19
Iteration:  2367charge 0 multiplicity 1
 O         0.058790        -0.004890         0.819677
 C        -0.587866         1.247062         0.816277
 C        -2.079744         1.145104         0.511826
 C        -1.653882         1.760385         1.824599
 C        -1.169513         3.183576         1.506906
 O        -0.501758         3.916939         2.595179
 C         0.688066         3.265376         2.798451
 C         1.250340         2.955409         1.462967
 C         0.017429         2.661656         0.552210
 H         1.016994        -0.011259         0.540451
 H        -2.500518         1.896571        -0.197517
 H        -2.602790         0.106321         0.488210
 H        -2.104577         1.464455         2.710540
 H        -1.839972         3.886018         1.017364
 H         1.299095         3.851248         3.373283
 H         0.564682         2.297061         3.540240
 H         1.841341         3.795111         1.039198
 H         2.059193         2.217333         1.488542
 H         0.024342         2.748424        -0.513120
