19
Iteration:   376
 O         0.148335         0.125850         0.976546
 C        -0.636821         1.282384         0.833504
 C        -2.069037         1.143855         0.431175
 C        -1.661827         1.822748         1.784891
 C        -1.141920         3.224744         1.467774
 O        -0.487758         3.831087         2.567515
 C         0.714238         3.244755         2.824352
 C         1.258570         2.886484         1.425231
 C        -0.000002         2.578763         0.580483
 H        -0.573670        -0.566723         0.802189
 H        -2.592096         1.819037        -0.303715
 H        -2.627683         0.204945         0.486572
 H        -2.056686         1.442744         2.610425
 H        -1.925048         3.892394         1.092124
 H         1.272716         4.018325         3.278551
 H         0.809141         2.276755         3.404445
 H         1.592411         3.726932         0.737511
 H         2.128960         2.172537         1.285325
 H         0.105563         2.966899        -0.457802
