19
Iteration:  3779charge 0 multiplicity 1
 O         0.085925        -0.026086         0.790193
 C        -0.627742         1.237557         0.851120
 C        -2.064922         1.181301         0.377576
 C        -1.677566         1.739766         1.766485
 C        -1.129135         3.260463         1.509930
 O        -0.599818         3.833311         2.646733
 C         0.854826         3.255831         2.871367
 C         1.235198         3.031049         1.383970
 C        -0.029836         2.623926         0.648409
 H         0.230519        -0.419212         1.651561
 H        -2.328432         1.984562        -0.313411
 H        -2.590899         0.321173         0.456585
 H        -1.895550         1.239154         2.650125
 H        -1.727016         4.019467         0.998623
 H         1.541323         3.934194         3.422662
 H         0.823514         2.205663         3.300851
 H         1.591620         3.910745         0.795159
 H         2.095314         2.248004         1.395907
 H        -0.000627         3.144894        -0.454050
