19
Iteration:  4359charge 0 multiplicity 1
 O         0.076438         0.009998         0.836172
 C        -0.590165         1.229446         0.734898
 C        -2.021453         1.179464         0.435600
 C        -1.725848         1.825332         1.720414
 C        -1.159837         3.204905         1.497103
 O        -0.556381         3.731267         2.717810
 C         0.740848         3.316088         2.842124
 C         1.258493         2.957490         1.450786
 C        -0.021586         2.677348         0.568592
 H         0.801925         0.214610         1.487138
 H        -2.462863         1.788274        -0.316635
 H        -2.402973         0.158912         0.422415
 H        -1.988885         1.522589         2.736837
 H        -1.780115         4.004513         1.095922
 H         1.345788         3.944219         3.404955
 H         0.855879         2.316966         3.364952
 H         1.730826         3.800982         0.940076
 H         1.996561         2.067941         1.286292
 H         0.062428         3.099505        -0.477311
