19
Iteration:  4237
 O         0.220191         0.071825         0.854415
 C        -0.619228         1.206335         0.769841
 C        -2.061807         1.187367         0.400505
 C        -1.831924         1.855000         1.790781
 C        -1.102975         3.241457         1.536887
 O        -0.497636         3.838860         2.716804
 C         0.727995         3.155656         2.834936
 C         1.177143         2.980279         1.353887
 C        -0.037084         2.606557         0.583217
 H         1.008676         0.329701         1.451811
 H        -2.524914         1.617869        -0.530242
 H        -2.552769         0.293645         0.371915
 H        -2.129827         1.285438         2.749851
 H        -1.867184         3.922991         1.054388
 H         1.481412         3.734634         3.406911
 H         0.480630         2.186921         3.273270
 H         1.682371         3.910116         0.999833
 H         1.781455         2.029863         1.182227
 H         0.305229         2.793916        -0.533649
