19
Iteration:  1683charge 0 multiplicity 1
 O         0.119304         0.050270         0.862802
 C        -0.662339         1.156496         0.841136
 C        -2.125146         1.043504         0.444511
 C        -1.642650         1.848707         1.749166
 C        -1.060762         3.253137         1.404352
 O        -0.519180         3.901434         2.680610
 C         0.735391         3.249503         2.816148
 C         1.260792         3.029572         1.395416
 C         0.044762         2.614708         0.654303
 H        -0.456596        -0.539929         0.442700
 H        -2.558811         1.551296        -0.387727
 H        -2.430538        -0.090012         0.655031
 H        -2.246820         1.660890         2.666045
 H        -1.762233         4.064430         1.067486
 H         1.239107         3.845988         3.540497
 H         0.654989         2.175845         3.406296
 H         1.392856         4.017269         1.062293
 H         2.185465         2.340274         1.424507
 H         0.040907         2.869127        -0.426225
