19
Iteration:  2066charge 0 multiplicity 1
 O         0.126883         0.029372         0.891786
 C        -0.576313         1.224544         0.909062
 C        -2.015042         1.128730         0.431472
 C        -1.722464         1.850142         1.736363
 C        -1.207154         3.301803         1.450873
 O        -0.514518         3.796594         2.640225
 C         0.809511         3.256747         2.851213
 C         1.292376         3.019070         1.342573
 C        -0.047710         2.646374         0.624294
 H        -0.307171        -0.687785         0.355852
 H        -2.548622         1.531234        -0.469393
 H        -2.601204         0.260822         0.749568
 H        -2.144782         1.427445         2.717376
 H        -2.053151         3.902133         1.232351
 H         1.357669         3.851306         3.519168
 H         0.580984         2.243202         3.459814
 H         1.834283         3.777551         0.785403
 H         1.919168         2.062216         1.236317
 H         0.027563         2.761011        -0.440974
