19
Iteration:  1060
 O         0.254695         0.213734         1.038217
 C        -0.651588         1.286021         0.838474
 C        -2.032994         1.095426         0.477728
 C        -1.800908         1.850640         1.730706
 C        -1.149364         3.265504         1.484781
 O        -0.447842         3.849974         2.594372
 C         0.743012         2.956811         2.792768
 C         1.268071         2.964653         1.323551
 C        -0.076082         2.677308         0.544363
 H        -0.344164        -0.561362         0.973250
 H        -2.533052         1.601155        -0.436824
 H        -2.486566         0.163269         0.824720
 H        -2.507862         1.617493         2.535035
 H        -1.867602         4.001929         1.038800
 H         1.219669         3.498855         3.596861
 H         0.573814         1.938741         3.155195
 H         1.819450         3.815817         0.970994
 H         2.075877         2.168369         1.127954
 H        -0.194858         3.055880        -0.408138
