19
Iteration:  3787charge 0 multiplicity 1
 O         0.096249        -0.016550         0.801949
 C        -0.631390         1.186768         0.813829
 C        -2.057469         1.217303         0.360084
 C        -1.678525         1.776192         1.800239
 C        -1.116685         3.197775         1.521667
 O        -0.513070         3.866069         2.714255
 C         0.737587         3.237346         2.826851
 C         1.290493         3.041818         1.377108
 C        -0.017995         2.616431         0.603478
 H         0.149110        -0.259649         1.700856
 H        -2.502156         1.906281        -0.511538
 H        -2.558704         0.221693         0.429295
 H        -2.067260         1.145533         2.603075
 H        -1.877689         3.900132         1.094006
 H         1.409627         3.983156         3.395620
 H         0.600626         2.453642         3.604561
 H         1.498469         4.014992         0.911434
 H         2.107506         2.325927         1.151057
 H        -0.145875         2.895983        -0.474390
