19
Iteration:  2914charge 0 multiplicity 1
 O         0.114955        -0.024377         0.805555
 C        -0.541245         1.223619         0.741601
 C        -2.017044         1.223579         0.468623
 C        -1.670081         1.800636         1.815186
 C        -1.185190         3.250602         1.563436
 O        -0.520815         3.895003         2.590102
 C         0.716035         3.180560         2.843707
 C         1.201965         2.948452         1.408522
 C        -0.029232         2.648116         0.553409
 H         0.588483        -0.102194         1.612585
 H        -2.526789         1.880076        -0.091371
 H        -2.401649         0.094859         0.483323
 H        -2.187690         1.441586         2.792169
 H        -1.884561         4.115110         1.111986
 H         1.239311         3.884753         3.448311
 H         0.549182         2.233303         3.416519
 H         1.773653         3.734452         0.968592
 H         1.841320         2.024946         1.470860
 H         0.053862         2.922738        -0.482621
