19
Iteration:  3027charge 0 multiplicity 1
 O         0.067961        -0.051310         1.010753
 C        -0.650393         1.177945         0.822415
 C        -2.050083         1.258371         0.285051
 C        -1.666257         1.731831         1.707573
 C        -1.174855         3.241888         1.539813
 O        -0.494793         3.767077         2.739361
 C         0.843667         3.239622         2.814957
 C         1.260389         3.087525         1.323284
 C        -0.104203         2.663155         0.536268
 H         0.143607        -0.318638         1.958011
 H        -2.363351         1.985997        -0.624612
 H        -2.442489         0.313582         0.082290
 H        -2.038659         1.347898         2.625780
 H        -2.029421         4.064336         1.287237
 H         1.540851         4.016341         3.243663
 H         0.956869         2.281993         3.381714
 H         1.520788         4.153099         0.941961
 H         2.100304         2.437411         1.085638
 H         0.191395         2.918961        -0.526930
