19
Iteration:    95charge 0 multiplicity 1
 O         0.144560         0.113955         0.974989
 C        -0.627301         1.212972         0.816025
 C        -2.054663         1.204576         0.451636
 C        -1.638997         1.788451         1.784173
 C        -1.156297         3.205982         1.411629
 O        -0.530445         3.898431         2.583932
 C         0.783780         3.259302         2.815647
 C         1.224779         2.856530         1.476778
 C        -0.061457         2.557197         0.581177
 H        -0.049730        -0.470417         0.189432
 H        -2.382700         1.879363        -0.324950
 H        -2.623394         0.233033         0.343197
 H        -1.945600         1.462221         2.804539
 H        -1.905341         3.888927         0.937707
 H         1.346548         4.081501         3.318220
 H         0.582509         2.533940         3.614745
 H         1.625113         3.791065         0.995552
 H         1.986601         2.037328         1.499816
 H         0.157945         2.813138        -0.555218
