19
Iteration:  3421
 O         0.078820        -0.025301         0.870063
 C        -0.582243         1.226435         0.846269
 C        -2.014239         1.282833         0.297261
 C        -1.652482         1.782132         1.733823
 C        -1.218809         3.178990         1.653371
 O        -0.509226         3.848762         2.637769
 C         0.774229         3.223486         2.790167
 C         1.232483         2.995060         1.370971
 C        -0.044708         2.600088         0.641845
 H         0.322541        -0.145358         1.768192
 H        -2.443721         1.908834        -0.533246
 H        -2.630309         0.404541         0.304625
 H        -2.115677         1.137613         2.488535
 H        -1.893900         3.889816         1.126778
 H         1.532774         3.948459         3.270055
 H         0.794556         2.346711         3.456398
 H         1.589964         3.989352         0.931438
 H         2.177929         2.429328         1.281133
 H        -0.126087         2.908597        -0.419911
