19
Iteration:  3986charge 0 multiplicity 1
 O         0.107356        -0.017446         0.793524
 C        -0.588623         1.208702         0.842725
 C        -2.048957         1.199241         0.391292
 C        -1.714642         1.818932         1.749934
 C        -1.166760         3.258860         1.492006
 O        -0.602379         3.807399         2.809293
 C         0.799615         3.276893         2.808960
 C         1.246531         2.946917         1.341744
 C        -0.028010         2.608011         0.611454
 H         0.894869         0.098601         1.439360
 H        -2.397116         1.890306        -0.516723
 H        -2.565353         0.119749         0.232641
 H        -2.114595         1.355237         2.575957
 H        -1.724041         4.134302         1.076814
 H         1.457284         4.154377         3.001163
 H         0.961698         2.536408         3.579344
 H         1.826343         3.749798         0.967246
 H         1.937042         2.028068         1.319017
 H        -0.101048         2.942966        -0.369473
