19
Iteration:  3144charge 0 multiplicity 1
 O         0.161075         0.033221         0.754596
 C        -0.623933         1.211865         0.879955
 C        -2.112015         1.140334         0.444398
 C        -1.583084         1.836315         1.828823
 C        -1.149340         3.268644         1.521626
 O        -0.562928         3.971700         2.599382
 C         0.691452         3.081913         2.821360
 C         1.247049         2.931267         1.438171
 C         0.020465         2.622031         0.540453
 H         0.601622        -0.222474         1.558403
 H        -2.493029         1.913328        -0.243304
 H        -2.730230         0.356683         0.535403
 H        -1.968792         1.373127         2.729215
 H        -1.896252         3.814953         1.105947
 H         1.212319         3.716765         3.568086
 H         0.207061         2.202489         3.321219
 H         1.508301         3.972347         1.144263
 H         2.087292         2.273080         1.203433
 H         0.269879         2.880580        -0.487612
