19
Iteration:  4546charge 0 multiplicity 1
 O         0.085740         0.026094         0.853392
 C        -0.668954         1.275903         0.751564
 C        -2.029020         1.179484         0.365262
 C        -1.677654         1.729385         1.785002
 C        -1.157110         3.235058         1.510864
 O        -0.604185         3.811932         2.726352
 C         0.793090         3.254261         2.831382
 C         1.302617         2.991541         1.425852
 C         0.021243         2.648024         0.508558
 H         0.542667         0.036002         1.732694
 H        -2.380009         1.775292        -0.363397
 H        -2.442477         0.125538         0.358620
 H        -2.124002         1.321676         2.749099
 H        -1.925126         3.887572         1.114179
 H         1.300911         3.844270         3.479045
 H         0.681542         2.338471         3.448850
 H         1.759127         3.798622         0.887331
 H         2.152188         2.128721         1.512985
 H        -0.031521         3.037030        -0.537255
