19
Iteration:   317
 O         0.212094         0.109127         0.950731
 C        -0.630668         1.249511         0.886449
 C        -2.032234         1.215285         0.467596
 C        -1.678106         1.842437         1.910124
 C        -1.141266         3.202097         1.421899
 O        -0.553439         3.994591         2.501422
 C         0.758369         3.113197         2.816510
 C         1.215291         2.817293         1.402203
 C        -0.050861         2.562842         0.561068
 H        -0.022678        -0.292404         0.078579
 H        -2.348599         1.975505        -0.211958
 H        -2.436037         0.192575         0.412627
 H        -2.328510         1.303008         2.790858
 H        -1.922918         3.874189         1.043001
 H         1.302516         3.918266         3.446817
 H         0.555195         2.286852         3.468367
 H         1.642098         3.682503         1.027986
 H         1.814674         1.938151         1.434862
 H         0.178593         2.902946        -0.507959
