19
Iteration:  1141charge 0 multiplicity 1
 O         0.155632         0.062254         0.835983
 C        -0.695149         1.225682         0.894819
 C        -2.010464         1.177636         0.311418
 C        -1.739496         1.801794         1.814409
 C        -1.152024         3.140326         1.567068
 O        -0.500517         3.941118         2.677330
 C         0.815388         3.357619         2.802686
 C         1.232825         2.872195         1.356800
 C        -0.003665         2.550225         0.626735
 H        -0.254648        -0.752063         0.663038
 H        -2.286823         1.713939        -0.518881
 H        -2.365317         0.161916         0.513302
 H        -2.390594         1.365108         2.637451
 H        -1.854019         3.820345         1.143779
 H         1.340150         4.236014         3.251800
 H         0.776185         2.473442         3.490053
 H         1.629450         3.743767         0.779993
 H         1.888423         2.040750         1.454846
 H        -0.074397         3.107755        -0.307755
