19
Iteration:  3625charge 0 multiplicity 1
 O         0.127362         0.080983         0.936976
 C        -0.644696         1.254071         0.822979
 C        -1.992638         1.252492         0.308169
 C        -1.720198         1.802457         1.743957
 C        -1.269943         3.183269         1.576454
 O        -0.506391         3.764476         2.697298
 C         0.788090         3.219859         2.763642
 C         1.303634         2.939608         1.347984
 C        -0.072162         2.625410         0.614233
 H         0.559251        -0.007159         1.770910
 H        -2.293614         1.944529        -0.464079
 H        -2.459518         0.210480         0.344836
 H        -2.208537         1.345060         2.685364
 H        -1.850058         4.005501         1.055107
 H         1.430627         3.895822         3.411859
 H         0.933642         2.312965         3.378626
 H         1.550135         3.883588         0.780515
 H         1.968609         1.942493         1.049420
 H        -0.020854         3.076746        -0.483282
