19
Iteration:  2448
 O         0.277828         0.192745         1.033429
 C        -0.680568         1.229602         0.855991
 C        -2.080042         1.187880         0.307391
 C        -1.823623         1.805641         1.738299
 C        -1.217556         3.195629         1.633172
 O        -0.462505         3.792560         2.660377
 C         0.861876         3.207470         2.717724
 C         1.214199         2.887310         1.311437
 C        -0.057582         2.666488         0.565311
 H        -0.013804        -0.431412         1.775187
 H        -2.357395         1.786815        -0.538913
 H        -2.594173         0.325540         0.335934
 H        -2.199971         1.055658         2.504572
 H        -1.811721         3.931006         1.024578
 H         1.556106         4.012120         3.174490
 H         0.747963         2.203914         3.367510
 H         1.678343         3.752911         0.855703
 H         1.734476         1.938774         1.148128
 H        -0.125270         2.972475        -0.489797
