19
Iteration:   663
 O         0.165906         0.141253         0.946469
 C        -0.652090         1.287683         0.818459
 C        -2.044585         1.038136         0.530426
 C        -1.717949         1.945453         1.803343
 C        -1.162971         3.267490         1.384979
 O        -0.478344         3.893520         2.562307
 C         0.727805         3.070020         2.875315
 C         1.266363         2.824132         1.422421
 C        -0.053796         2.660937         0.531486
 H        -0.201220        -0.486485         0.357852
 H        -2.677658         1.454782        -0.419393
 H        -2.282726         0.070350         0.861318
 H        -2.081695         1.596892         2.809189
 H        -1.848631         4.068876         1.080349
 H         1.298486         3.868707         3.298679
 H         0.683430         2.109355         3.451476
 H         1.618553         3.848959         0.933441
 H         2.121720         2.171676         1.459065
 H         0.271666         3.086260        -0.562881
