19
Iteration:  3834charge 0 multiplicity 1
 O         0.103295         0.112086         0.905012
 C        -0.582334         1.268532         0.848527
 C        -2.048647         1.178393         0.390086
 C        -1.719598         1.810503         1.766912
 C        -1.153097         3.214779         1.594046
 O        -0.569758         3.770198         2.691992
 C         0.733313         3.150419         2.797609
 C         1.240898         2.893854         1.295056
 C         0.005944         2.665049         0.538318
 H         1.020788         0.368581         1.254587
 H        -2.297894         1.842641        -0.455466
 H        -2.365915         0.141263         0.355950
 H        -2.254054         1.808382         2.650000
 H        -1.825832         4.004516         1.252681
 H         1.432913         3.807652         3.337220
 H         0.706590         2.218169         3.471780
 H         1.675950         3.815419         0.868169
 H         2.058944         2.078696         1.327828
 H        -0.159540         3.079813        -0.575030
