19
Iteration:   485
 O         0.157421         0.135970         1.122056
 C        -0.689218         1.250943         0.866940
 C        -2.056348         1.197156         0.406405
 C        -1.728831         1.819080         1.784631
 C        -1.160688         3.279134         1.505244
 O        -0.461583         3.803631         2.569133
 C         0.741599         3.102533         2.763162
 C         1.244895         2.961047         1.340988
 C        -0.041709         2.582327         0.539388
 H         0.771828         0.074253         0.369386
 H        -2.377430         1.870810        -0.372761
 H        -2.453220         0.105533         0.392713
 H        -2.221659         1.353834         2.532825
 H        -1.867839         4.003107         1.080328
 H         1.369213         3.687363         3.389953
 H         0.667489         2.145819         3.324713
 H         1.684338         3.864815         0.898581
 H         1.933142         2.095358         1.251513
 H        -0.102823         2.927007        -0.591003
