19
Iteration:  3836charge 0 multiplicity 1
 O         0.109119         0.113643         0.907335
 C        -0.583593         1.281057         0.839842
 C        -2.041739         1.181076         0.394815
 C        -1.719853         1.834451         1.762903
 C        -1.161582         3.214801         1.585326
 O        -0.570446         3.764316         2.697538
 C         0.758787         3.142875         2.799617
 C         1.231743         2.895167         1.310627
 C         0.009919         2.658861         0.527553
 H         1.039815         0.377113         1.236621
 H        -2.331255         1.726991        -0.396294
 H        -2.415709         0.114475         0.342220
 H        -2.335188         1.752209         2.677514
 H        -1.853520         3.971699         1.248796
 H         1.406018         3.786673         3.323545
 H         0.655129         2.236659         3.437885
 H         1.660110         3.776997         0.798048
 H         2.009163         2.111240         1.348627
 H        -0.129127         3.060826        -0.536550
