19
Iteration:  1553
 O         0.093742        -0.000871         1.126200
 C        -0.588875         1.144026         0.913765
 C        -2.042586         1.253113         0.336417
 C        -1.746167         1.748788         1.691904
 C        -1.164938         3.177139         1.513585
 O        -0.496863         3.790653         2.680318
 C         0.812522         3.217064         2.734910
 C         1.241035         3.116834         1.286352
 C        -0.040055         2.668529         0.599622
 H         0.075694        -0.580166         0.284474
 H        -2.126264         1.959548        -0.471508
 H        -2.728063         0.465642         0.249579
 H        -2.015707         1.378813         2.638000
 H        -1.806915         4.077483         1.227282
 H         1.262506         3.852426         3.397481
 H         0.700935         2.282575         3.130007
 H         1.719054         4.054786         0.954287
 H         2.124794         2.383837         1.046220
 H        -0.153502         3.043003        -0.458755
