19
Iteration:  2476
 O         0.139384         0.165472         1.088124
 C        -0.670227         1.212644         0.825180
 C        -2.070007         1.124313         0.349474
 C        -1.743714         1.838427         1.698842
 C        -1.167577         3.229655         1.554398
 O        -0.493905         3.654992         2.758165
 C         0.877355         3.268492         2.742894
 C         1.253283         3.028528         1.271794
 C        -0.028313         2.667751         0.514545
 H        -0.275711        -0.668217         1.427060
 H        -2.317993         1.741497        -0.554762
 H        -2.722275         0.095606         0.459917
 H        -2.367576         1.338521         2.455221
 H        -1.790029         3.985452         1.090781
 H         1.461815         3.999595         3.205183
 H         1.000740         2.373879         3.248056
 H         1.693285         3.941459         0.830185
 H         1.904446         2.109346         1.177075
 H        -0.065664         2.985704        -0.549827
