19
Iteration:  1726charge 0 multiplicity 1
 O         0.164805         0.078376         0.952519
 C        -0.638092         1.207406         0.861548
 C        -2.065481         1.269512         0.347597
 C        -1.634260         1.710512         1.793946
 C        -1.165723         3.166385         1.563108
 O        -0.565489         3.860911         2.622638
 C         0.769945         3.323112         2.755059
 C         1.253479         2.877658         1.394360
 C        -0.032991         2.615058         0.593287
 H         0.013366        -0.626055         0.349932
 H        -2.106440         2.176207        -0.204322
 H        -2.731740         0.324919         0.367918
 H        -2.187771         1.403029         2.720352
 H        -1.804175         3.864497         0.987017
 H         1.470807         4.036471         3.126987
 H         0.639088         2.625638         3.640104
 H         1.660349         3.652166         0.875338
 H         1.900440         1.945983         1.470244
 H        -0.030012         2.999050        -0.432724
