19
Iteration:  2179charge 0 multiplicity 1
 O         0.201539         0.191241         1.076535
 C        -0.659613         1.313830         0.794090
 C        -2.165827         1.145074         0.432163
 C        -1.689454         1.838686         1.789480
 C        -1.144326         3.258237         1.436118
 O        -0.548841         3.726547         2.615081
 C         0.785124         3.105543         2.826469
 C         1.256166         2.943128         1.327839
 C        -0.021578         2.636576         0.586373
 H         0.638008        -0.120411         0.303483
 H        -2.660981         1.546922        -0.505667
 H        -2.434683         0.112063         0.544875
 H        -2.105495         1.514824         2.756233
 H        -1.867968         4.011829         1.075288
 H         1.489204         3.747523         3.275576
 H         0.775241         1.932126         3.165355
 H         1.732282         3.904289         0.818991
 H         2.006047         2.198553         1.438307
 H        -0.089105         3.044283        -0.433477
