19
Iteration:  3806charge 0 multiplicity 1
 O         0.101785         0.011590         0.855518
 C        -0.580630         1.225850         0.777918
 C        -2.056084         1.243842         0.384142
 C        -1.702610         1.749930         1.738766
 C        -1.213043         3.182974         1.629611
 O        -0.541555         3.851874         2.610834
 C         0.843610         3.205455         2.816985
 C         1.208302         3.011755         1.394055
 C         0.005566         2.626026         0.582084
 H         0.539953        -0.034309         1.729030
 H        -2.325891         2.014483        -0.352905
 H        -2.574834         0.207700         0.434954
 H        -2.299570         1.448702         2.733912
 H        -1.966564         3.921385         1.274718
 H         1.503573         3.739890         3.492978
 H         0.736761         2.196006         3.219390
 H         1.546155         3.906383         0.815267
 H         1.976548         2.298889         1.457585
 H         0.090935         2.998469        -0.351625
