19
Iteration:   779
 O         0.125678         0.021626         1.077620
 C        -0.686613         1.184500         0.934931
 C        -2.029527         1.276068         0.350188
 C        -1.815927         1.863160         1.697603
 C        -1.117289         3.244844         1.513190
 O        -0.525374         3.640390         2.676805
 C         0.860901         3.334910         2.760975
 C         1.270242         3.028734         1.254538
 C        -0.016265         2.531143         0.621604
 H        -0.240254        -0.579067         0.466138
 H        -2.099422         1.919679        -0.539478
 H        -2.601312         0.436730         0.353351
 H        -2.278453         1.689582         2.814146
 H        -1.841366         3.983223         1.065609
 H         1.290375         4.348078         3.079805
 H         1.105739         2.575951         3.569931
 H         1.612955         3.902138         0.710223
 H         2.061441         2.281991         1.084169
 H         0.052992         2.744879        -0.452864
