19
Iteration:  1986
 O         0.101962         0.122276         0.941212
 C        -0.535956         1.298472         0.833164
 C        -2.067503         1.082173         0.495985
 C        -1.664435         1.894100         1.750409
 C        -1.188390         3.285895         1.523473
 O        -0.547361         3.822919         2.618249
 C         0.783331         3.134979         2.796264
 C         1.227079         2.919564         1.399669
 C         0.014682         2.593279         0.522927
 H        -0.157692        -0.340134         0.127512
 H        -2.395989         1.506961        -0.424245
 H        -2.416480         0.102619         0.771776
 H        -1.984880         1.672181         2.716778
 H        -1.899924         4.002219         1.151987
 H         1.384649         3.924935         3.394518
 H         0.388345         2.242680         3.410301
 H         1.663479         3.839066         1.004831
 H         1.947731         2.116088         1.404916
 H         0.028135         2.778942        -0.563115
