19
Iteration:  1674
 O         0.166271         0.028735         0.893379
 C        -0.658159         1.234904         0.796028
 C        -2.117706         1.114285         0.449370
 C        -1.674647         1.871686         1.735973
 C        -1.110108         3.235008         1.485378
 O        -0.496171         3.876951         2.610701
 C         0.757516         3.205977         2.874475
 C         1.225241         3.069811         1.442167
 C        -0.033080         2.568814         0.609503
 H        -0.190794        -0.727876         0.486370
 H        -2.595247         1.504620        -0.413319
 H        -2.398171         0.069218         0.859758
 H        -2.020117         1.499000         2.733217
 H        -1.615262         4.005121         0.790749
 H         1.376886         3.789067         3.566909
 H         0.495270         2.180431         3.335762
 H         1.602178         4.034729         0.940414
 H         2.067925         2.288321         1.233399
 H         0.143286         2.733531        -0.504990
