19
Iteration:  1928charge 0 multiplicity 1
 O         0.031518         0.050736         1.074710
 C        -0.621554         1.273967         0.833150
 C        -1.961403         1.218389         0.272375
 C        -1.640209         1.713317         1.789981
 C        -1.141272         3.199542         1.570288
 O        -0.509692         3.819868         2.657627
 C         0.807701         3.253521         2.810505
 C         1.208720         2.951180         1.244768
 C        -0.095748         2.620143         0.608762
 H         0.396231        -0.319587         0.222299
 H        -2.262060         2.073648        -0.323630
 H        -2.576622         0.322734         0.185464
 H        -2.091586         1.310658         2.757252
 H        -1.802362         3.977963         1.062489
 H         1.471482         4.074935         3.423148
 H         0.728280         2.456061         3.654822
 H         1.737091         3.859771         0.878645
 H         1.884892         2.137035         1.162972
 H        -0.257891         2.879010        -0.483680
