19
Iteration:  3832charge 0 multiplicity 1
 O         0.103285         0.108806         0.903526
 C        -0.588855         1.256763         0.856231
 C        -2.050700         1.179312         0.387325
 C        -1.716396         1.787750         1.763583
 C        -1.146383         3.214564         1.594011
 O        -0.563542         3.776230         2.689153
 C         0.708012         3.156673         2.796963
 C         1.255602         2.894166         1.282783
 C        -0.007679         2.671117         0.547322
 H         0.953437         0.331951         1.259904
 H        -2.277524         1.959526        -0.519290
 H        -2.326348         0.168831         0.378159
 H        -2.204360         1.811779         2.698567
 H        -1.813513         4.040846         1.232659
 H         1.453541         3.845313         3.348923
 H         0.756015         2.221977         3.464637
 H         1.710114         3.852674         0.964717
 H         2.073926         2.078104         1.291188
 H        -0.159251         3.062864        -0.535264
