19
Iteration:  4480
 O         0.124573         0.068895         0.910429
 C        -0.607313         1.275639         0.839309
 C        -2.034453         1.203415         0.354222
 C        -1.760738         1.837499         1.752589
 C        -1.136267         3.228188         1.498106
 O        -0.563557         3.698663         2.670726
 C         0.782482         3.186851         2.807532
 C         1.223960         2.981159         1.363735
 C        -0.060943         2.679839         0.579701
 H         0.836689         0.231007         1.531617
 H        -2.394772         1.699822        -0.425375
 H        -2.273103         0.085776         0.480864
 H        -2.213572         1.407615         2.629300
 H        -1.812530         3.997552         1.150860
 H         1.437036         3.771306         3.367063
 H         0.810379         2.168831         3.378311
 H         1.808593         3.868247         1.064296
 H         2.172390         2.204003         1.449710
 H         0.015795         3.037027        -0.466004
