19
Iteration:  4471charge 0 multiplicity 1
 O         0.074624         0.116844         0.931130
 C        -0.641683         1.261828         0.763987
 C        -2.013655         1.115556         0.438187
 C        -1.760638         1.813636         1.716099
 C        -1.125665         3.211317         1.502644
 O        -0.523595         3.691606         2.669474
 C         0.788725         3.152446         2.829633
 C         1.272354         3.069073         1.401974
 C        -0.034566         2.676726         0.543917
 H         0.876530         0.321435         1.407623
 H        -2.356702         1.765980        -0.319458
 H        -2.378546         0.050737         0.262532
 H        -2.310613         1.638617         2.685630
 H        -1.636844         4.021845         1.031952
 H         1.134958         3.924241         3.520175
 H         0.704268         2.152202         3.415911
 H         1.829160         3.912575         1.124444
 H         1.809096         2.091944         1.192524
 H        -0.057032         3.038891        -0.484256
