19
Iteration:  1614
 O         0.200916         0.173240         1.110185
 C        -0.613055         1.184443         0.773978
 C        -2.129926         1.123864         0.364275
 C        -1.715091         1.789918         1.721176
 C        -1.213868         3.289359         1.555211
 O        -0.451662         3.839887         2.636356
 C         0.755409         3.168811         2.774629
 C         1.254718         2.854351         1.355329
 C        -0.090404         2.681880         0.563998
 H         0.600509        -0.117715         0.280464
 H        -2.649290         1.619680        -0.563261
 H        -2.404482         0.082227         0.423838
 H        -2.288510         1.612677         2.651480
 H        -1.852831         4.019171         1.159125
 H         1.552211         3.869279         3.233451
 H         0.774853         2.213799         3.496187
 H         1.708677         3.774257         1.117439
 H         1.819603         1.992195         1.202768
 H         0.032191         3.082006        -0.434182
