19
Iteration:  4678
 O         0.127309         0.022067         0.842941
 C        -0.668210         1.236399         0.824529
 C        -2.025944         1.199817         0.366916
 C        -1.761958         1.805397         1.706099
 C        -1.108249         3.227445         1.481401
 O        -0.530226         3.742716         2.694077
 C         0.797598         3.266062         2.843823
 C         1.258060         3.025088         1.420848
 C        -0.060530         2.652568         0.631538
 H         0.579040         0.052380         1.681738
 H        -2.437659         1.692890        -0.516750
 H        -2.468681         0.309678         0.494011
 H        -2.304406         1.199438         2.514382
 H        -1.842504         3.916733         1.077580
 H         1.481854         3.852832         3.324369
 H         0.655063         2.311372         3.429733
 H         1.684633         3.924424         1.078235
 H         2.027303         2.239623         1.310617
 H         0.153322         2.775330        -0.485486
