19
Iteration:  1836
 O         0.137007         0.088632         1.044125
 C        -0.583046         1.211540         0.831064
 C        -1.955987         1.172822         0.340562
 C        -1.712517         1.792536         1.778520
 C        -1.165508         3.246360         1.551981
 O        -0.499814         3.891895         2.671912
 C         0.747018         3.096306         2.708498
 C         1.171016         3.021158         1.339025
 C        -0.029421         2.673085         0.609886
 H        -0.302507        -0.627449         0.526351
 H        -2.448987         1.778192        -0.526233
 H        -2.486979         0.087354         0.385599
 H        -2.091266         1.292876         2.622121
 H        -1.867237         4.031549         1.150152
 H         1.544673         3.481274         3.330136
 H         0.462618         2.136114         3.220085
 H         1.593298         3.890333         0.872996
 H         2.034362         2.202971         1.307988
 H        -0.032746         2.947825        -0.444671
