19
Iteration:  4088charge 0 multiplicity 1
 O         0.072574         0.117794         0.845794
 C        -0.588096         1.240536         0.772090
 C        -2.078780         1.145519         0.420171
 C        -1.710334         1.782799         1.707787
 C        -1.135988         3.219485         1.552562
 O        -0.505956         3.794861         2.641467
 C         0.737588         3.170394         2.809008
 C         1.294233         2.982207         1.425141
 C        -0.066472         2.627132         0.606095
 H         0.841727         0.449639         1.312173
 H        -2.463020         1.751018        -0.415853
 H        -2.451487         0.190436         0.606389
 H        -2.107781         1.422348         2.805262
 H        -1.870883         3.963912         1.308316
 H         1.221477         3.799568         3.431828
 H         0.589053         2.256488         3.370769
 H         1.827720         3.963073         1.045949
 H         2.115442         2.233514         1.495135
 H         0.054488         2.813378        -0.472662
