19
Iteration:  1609charge 0 multiplicity 1
 O         0.174458         0.167435         1.115088
 C        -0.632302         1.144095         0.786020
 C        -2.175480         1.130528         0.329386
 C        -1.701542         1.779964         1.709403
 C        -1.172704         3.283882         1.507294
 O        -0.469780         3.831342         2.641839
 C         0.803647         3.148525         2.788654
 C         1.233863         2.912273         1.347987
 C        -0.053465         2.680094         0.607515
 H         0.670576        -0.039320         0.247791
 H        -2.737409         1.531281        -0.448023
 H        -2.247668         0.010287         0.587187
 H        -2.330589         1.642237         2.601795
 H        -1.914641         4.130078         1.220120
 H         1.419055         3.881181         3.289789
 H         0.824650         2.333773         3.404274
 H         1.814567         3.879122         1.074429
 H         1.919582         1.975232         1.213695
 H        -0.063872         3.189557        -0.403287
