19
Iteration:  4979
 O         0.125166         0.060144         0.873242
 C        -0.581012         1.304514         0.813676
 C        -2.014867         1.146598         0.455786
 C        -1.724778         1.843022         1.729709
 C        -1.142070         3.249119         1.435787
 O        -0.525328         3.825380         2.629423
 C         0.702629         3.027840         2.867624
 C         1.272483         3.008516         1.466387
 C        -0.063840         2.675682         0.580593
 H         0.965817         0.327944         1.182073
 H        -2.448633         1.735685        -0.269325
 H        -2.469070         0.071560         0.407986
 H        -2.489892         1.543448         2.579455
 H        -1.856861         3.924344         1.068904
 H         1.351713         3.611964         3.492420
 H         0.543079         1.989383         3.285124
 H         1.859898         3.882277         1.115306
 H         1.942079         2.141770         1.241484
 H        -0.125747         3.006356        -0.536351
