19
Iteration:     2
 O         0.126289         0.089374         1.079472
 C        -0.625308         1.229287         0.836791
 C        -2.053211         1.183926         0.399208
 C        -1.704450         1.821007         1.736187
 C        -1.149755         3.223530         1.492026
 O        -0.529029         3.829803         2.606162
 C         0.745030         3.213319         2.785735
 C         1.256885         2.922341         1.372470
 C        -0.021428         2.627897         0.590834
 H         0.298818        -0.350817         0.210933
 H        -2.386346         1.834883        -0.447270
 H        -2.545093         0.248911         0.454136
 H        -2.108824         1.460207         2.635302
 H        -1.814247         3.965081         1.008756
 H         1.382673         3.888381         3.314479
 H         0.666870         2.250397         3.344536
 H         1.786218         3.808660         0.932321
 H         1.972287         2.073793         1.335031
 H         0.070250         2.925997        -0.501191
