19
Iteration:  3805
 O         0.102152         0.011466         0.855763
 C        -0.584677         1.222463         0.772023
 C        -2.057700         1.247987         0.383442
 C        -1.700281         1.745411         1.733622
 C        -1.210568         3.177775         1.638622
 O        -0.539152         3.857299         2.612636
 C         0.837028         3.211707         2.824822
 C         1.205532         3.008656         1.387340
 C         0.005390         2.619737         0.581399
 H         0.499239        -0.057783         1.706828
 H        -2.310339         1.968289        -0.318595
 H        -2.554999         0.208345         0.443076
 H        -2.306778         1.511013         2.725542
 H        -1.950650         3.912392         1.294263
 H         1.488973         3.750706         3.460176
 H         0.756996         2.193893         3.187750
 H         1.561719         3.939095         0.861897
 H         2.000263         2.321636         1.461094
 H         0.122421         3.010032        -0.373892
