19
Iteration:  4326
 O         0.132629        -0.010163         0.767166
 C        -0.621059         1.212815         0.823217
 C        -2.003025         1.221915         0.390675
 C        -1.779595         1.789147         1.762889
 C        -1.227344         3.192172         1.535292
 O        -0.499458         3.833314         2.642826
 C         0.748629         3.281901         2.829892
 C         1.274501         2.991076         1.447852
 C        -0.035208         2.589703         0.666020
 H         0.975028         0.017658         1.336950
 H        -2.236231         1.993809        -0.343807
 H        -2.481897         0.293035         0.286829
 H        -2.253772         1.437853         2.750610
 H        -1.863717         4.033466         1.296314
 H         1.317049         3.930707         3.400216
 H         0.635575         2.290642         3.279396
 H         1.540625         3.921360         0.967261
 H         2.098859         2.186995         1.238040
 H         0.103828         2.839985        -0.440095
