19
Iteration:  2577
 O         0.201012         0.150252         0.967546
 C        -0.671515         1.222250         0.765895
 C        -2.117274         1.179739         0.531390
 C        -1.655114         1.773152         1.796606
 C        -1.184412         3.311721         1.477112
 O        -0.573488         3.841234         2.629308
 C         0.749574         3.196996         2.772973
 C         1.265181         2.823963         1.392269
 C        -0.008924         2.614095         0.565660
 H         0.707062        -0.023684         0.191171
 H        -2.708839         1.869945        -0.230154
 H        -2.515707         0.181051         0.597356
 H        -1.901359         1.333517         2.820080
 H        -1.869032         4.078806         1.100228
 H         1.353465         3.882855         3.183823
 H         0.727471         2.346311         3.338299
 H         1.741895         3.644589         0.875737
 H         1.900142         1.896634         1.215324
 H         0.244198         2.932055        -0.451996
