19
Iteration:  1036charge 0 multiplicity 1
 O         0.258125         0.163596         1.083521
 C        -0.719410         1.250148         0.889274
 C        -2.056355         1.200909         0.362412
 C        -1.783041         1.865570         1.694007
 C        -1.144049         3.279119         1.512227
 O        -0.479089         3.773008         2.693383
 C         0.800648         3.124390         2.722544
 C         1.187956         2.932633         1.305902
 C        -0.068045         2.551597         0.583655
 H        -0.114337        -0.575704         0.666747
 H        -2.258045         1.778960        -0.688737
 H        -2.444177         0.233974         0.446201
 H        -2.042221         1.621279         2.782811
 H        -1.963858         4.047431         1.173881
 H         1.361633         3.865496         3.272271
 H         0.866826         2.242010         3.367427
 H         1.747694         3.784574         0.822533
 H         2.054399         2.266091         1.186727
 H        -0.029271         2.766645        -0.484836
