19
Iteration:   676charge 0 multiplicity 1
 O         0.214579         0.154195         0.961815
 C        -0.603661         1.283516         0.851639
 C        -2.074544         1.122327         0.566482
 C        -1.838293         1.881607         1.783326
 C        -1.124423         3.279404         1.479113
 O        -0.465229         3.874104         2.538866
 C         0.697935         3.109155         2.789531
 C         1.245305         2.862749         1.387733
 C         0.002071         2.601157         0.560348
 H         0.082166        -0.430321         0.138694
 H        -2.614969         1.544944        -0.338048
 H        -2.341754         0.060246         0.685598
 H        -2.084220         1.704623         2.752993
 H        -1.700518         3.993663         0.932448
 H         1.412997         3.578940         3.507759
 H         0.281301         2.204483         3.294985
 H         1.804747         3.816253         1.165970
 H         1.869860         1.968705         1.216112
 H        -0.092717         2.901711        -0.575522
