19
Iteration:    48
 O        -0.078093        -0.052102         0.922489
 C        -0.607299         1.191983         0.797834
 C        -1.980504         1.198483         0.381650
 C        -1.698917         1.748364         1.796642
 C        -1.192818         3.181778         1.573173
 O        -0.539783         3.884492         2.587390
 C         0.861170         3.426247         2.827209
 C         1.198686         2.974261         1.439531
 C         0.109667         2.511787         0.591609
 H         0.730639        -0.172178         0.321947
 H        -2.354507         1.839862        -0.490756
 H        -2.546972         0.272305         0.418194
 H        -2.192647         1.356172         2.690711
 H        -1.962899         3.874318         1.118278
 H         1.373389         4.323970         3.072812
 H         0.859474         2.752039         3.736842
 H         1.631794         3.950981         0.943764
 H         2.054625         2.209532         1.422176
 H         0.258305         2.937903        -0.473533
