19
Iteration:  3272charge 0 multiplicity 1
 O         0.076347        -0.052796         0.867951
 C        -0.581902         1.226629         0.808618
 C        -2.100894         1.169514         0.354533
 C        -1.698569         1.787091         1.759666
 C        -1.177351         3.299697         1.528510
 O        -0.536691         3.738261         2.707546
 C         0.808448         3.279215         2.826671
 C         1.235286         3.084537         1.374722
 C         0.025190         2.635120         0.548396
 H         0.310086        -0.237534         1.799199
 H        -2.498409         1.740961        -0.532913
 H        -2.544359         0.242049         0.402788
 H        -1.929400         1.471237         2.789540
 H        -1.899196         4.119953         1.003687
 H         1.383571         3.902851         3.454047
 H         0.821125         2.330843         3.356600
 H         1.633016         3.946620         0.968595
 H         1.971784         2.254798         1.438591
 H         0.244690         2.939410        -0.500250
