19
Iteration:     9
 O         0.109217         0.052449         1.063760
 C        -0.645796         1.209245         0.819660
 C        -2.052904         1.182115         0.389040
 C        -1.701956         1.810405         1.760943
 C        -1.137512         3.180104         1.483439
 O        -0.547279         3.859831         2.611268
 C         0.757510         3.225194         2.768478
 C         1.253402         2.963867         1.383154
 C        -0.024193         2.663083         0.641474
 H         0.413212        -0.218090         0.217425
 H        -2.175121         1.913648        -0.331018
 H        -2.787094         0.276261         0.313602
 H        -2.163259         1.359439         2.747731
 H        -1.579787         3.870718         0.775256
 H         1.532529         3.948733         3.248331
 H         0.764263         2.253336         3.208300
 H         1.804882         3.697512         0.904161
 H         1.893478         2.118330         1.310300
 H         0.170815         2.843680        -0.331192
