19
Iteration:   324charge 0 multiplicity 1
 O         0.178517         0.126813         0.915008
 C        -0.624972         1.219586         0.891053
 C        -2.002377         1.196991         0.512492
 C        -1.688195         1.881129         1.843277
 C        -1.114840         3.248130         1.450570
 O        -0.526562         3.939571         2.508512
 C         0.716075         3.146141         2.830349
 C         1.182621         2.851173         1.482019
 C        -0.048321         2.553548         0.511442
 H        -0.021248        -0.504688         0.125462
 H        -2.359107         1.748782        -0.359028
 H        -2.421621         0.126437         0.551550
 H        -2.019843         1.450049         2.782718
 H        -1.932963         3.901361         1.083489
 H         1.389747         3.842606         3.291909
 H         0.647110         2.289344         3.540708
 H         1.629678         3.758885         0.935665
 H         1.778941         1.926031         1.347891
 H         0.094670         2.714872        -0.522251
