19
Iteration:  4963charge 0 multiplicity 1
 O         0.195010         0.126102         0.850266
 C        -0.643912         1.222219         0.820353
 C        -2.066797         1.192383         0.417821
 C        -1.760172         1.883093         1.734850
 C        -1.174671         3.244257         1.527182
 O        -0.538070         3.786401         2.641438
 C         0.677335         3.104738         2.833313
 C         1.253602         2.904466         1.384124
 C         0.036417         2.635931         0.599811
 H         0.952206         0.250996         1.424959
 H        -2.572664         1.538320        -0.602930
 H        -2.526526         0.243032         0.583223
 H        -2.010497         1.576026         2.694226
 H        -1.759129         4.096874         1.025725
 H         1.352629         3.687688         3.620115
 H         0.525305         2.085062         3.285203
 H         1.508271         3.948776         1.161747
 H         2.150326         2.224846         1.332572
 H         0.256335         2.967593        -0.401165
