19
Iteration:  2965
 O         0.211328         0.108984         0.930684
 C        -0.602320         1.208832         0.812696
 C        -2.078581         1.243152         0.468607
 C        -1.759604         1.908203         1.737143
 C        -1.113746         3.203781         1.475792
 O        -0.550610         3.736830         2.660152
 C         0.721014         3.153427         2.781817
 C         1.226158         2.856384         1.353822
 C        -0.067373         2.672372         0.584142
 H         1.104359         0.490438         1.110610
 H        -2.308586         1.708946        -0.531130
 H        -2.491573         0.268070         0.755887
 H        -2.124257         1.725155         2.758210
 H        -1.787684         3.919977         1.169634
 H         1.290564         3.946362         3.317030
 H         0.593553         2.211317         3.363226
 H         1.717249         3.762458         0.982088
 H         1.902419         1.989252         1.332837
 H        -0.124413         2.952006        -0.475749
