19
Iteration:  2439charge 0 multiplicity 1
 O         0.244927         0.230635         0.984075
 C        -0.682265         1.210175         0.887192
 C        -2.038647         1.189027         0.359035
 C        -1.752283         1.740642         1.749814
 C        -1.191790         3.219395         1.553982
 O        -0.480637         3.814188         2.653892
 C         0.795819         3.185693         2.730447
 C         1.228039         2.888538         1.279739
 C        -0.098834         2.616768         0.566020
 H         0.077565        -0.340158         1.802748
 H        -2.193045         1.918723        -0.452190
 H        -2.631207         0.310012         0.341179
 H        -2.461112         1.430311         2.545629
 H        -1.953536         4.033394         1.431595
 H         1.541419         3.872973         3.390350
 H         0.795536         2.264505         3.359279
 H         1.965530         3.595068         0.840737
 H         1.860305         2.012108         1.286546
 H        -0.093248         3.052600        -0.465247
