19
Iteration:  1770
 O         0.102314         0.099257         0.981037
 C        -0.663441         1.260275         0.827056
 C        -2.039075         1.091473         0.396472
 C        -1.741372         1.820902         1.762076
 C        -1.138128         3.248143         1.496196
 O        -0.566134         3.817384         2.637756
 C         0.802968         3.239767         2.821304
 C         1.272227         2.862775         1.396679
 C        -0.030678         2.691669         0.537647
 H         0.687015         0.035020         0.221076
 H        -2.326190         1.720964        -0.450205
 H        -2.502216         0.042941         0.732135
 H        -1.988527         1.387333         2.752700
 H        -1.990162         3.833820         1.104673
 H         1.391520         4.069598         3.104474
 H         1.058156         2.462636         3.577917
 H         1.960190         3.609300         1.146647
 H         1.793550         1.833978         1.276881
 H         0.033213         3.225294        -0.406380
