19
Iteration:  1701
 O         0.122126        -0.027141         0.862545
 C        -0.592765         1.240461         0.846373
 C        -2.040143         1.165414         0.477717
 C        -1.772742         1.849094         1.773460
 C        -1.197794         3.221442         1.542758
 O        -0.583349         3.839396         2.620220
 C         0.771006         3.274649         2.814732
 C         1.329364         3.014799         1.414494
 C         0.047060         2.598768         0.544076
 H        -0.359048        -0.692208         0.413150
 H        -2.352642         1.783509        -0.407881
 H        -2.429041         0.222761         0.722446
 H        -2.046674         1.429982         2.719511
 H        -1.753077         3.923585         0.985523
 H         1.387280         4.020783         3.385398
 H         0.669759         2.467829         3.454601
 H         1.783787         3.922330         0.950262
 H         2.033775         2.226571         1.423567
 H         0.170214         2.789782        -0.526830
