19
Iteration:   434charge 0 multiplicity 1
 O         0.118004         0.142702         1.075819
 C        -0.626988         1.288303         0.814520
 C        -2.036476         1.119854         0.357483
 C        -1.794060         1.861799         1.721643
 C        -1.167272         3.180426         1.464465
 O        -0.465381         3.816307         2.645514
 C         0.837478         3.181691         2.825918
 C         1.234458         2.948777         1.371864
 C        -0.035662         2.609202         0.568134
 H        -0.278274        -0.584625         0.667468
 H        -2.263458         1.651731        -0.538827
 H        -2.442259         0.038343         0.619356
 H        -2.092202         1.540286         2.838522
 H        -1.851629         3.865274         0.922110
 H         1.507356         4.001375         3.199603
 H         0.943054         2.282099         3.502543
 H         1.460543         3.962818         0.826664
 H         1.959218         2.162303         1.194487
 H        -0.066159         2.926064        -0.448339
