19
Iteration:   690charge 0 multiplicity 1
 O         0.256407         0.136836         1.005661
 C        -0.669590         1.180354         0.898646
 C        -2.109527         1.194773         0.475191
 C        -1.668392         1.875948         1.804161
 C        -1.172111         3.280062         1.457040
 O        -0.496838         3.919648         2.576753
 C         0.675678         3.060388         2.719997
 C         1.288260         2.882676         1.344071
 C        -0.059988         2.625228         0.606562
 H         0.315785        -0.275030         0.169470
 H        -2.408432         1.747439        -0.317136
 H        -2.785431         0.311128         0.710868
 H        -2.292573         1.502055         2.641318
 H        -1.908831         4.009595         1.099158
 H         1.292308         3.600389         3.509596
 H         0.555138         2.036951         3.140582
 H         1.836941         3.607420         0.834083
 H         1.952637         1.977479         1.436070
 H         0.136159         2.860872        -0.399789
