19
Iteration:  3586charge 0 multiplicity 1
 O         0.083651         0.043789         0.904133
 C        -0.690528         1.226620         0.782117
 C        -1.997542         1.195338         0.328143
 C        -1.755397         1.793689         1.709085
 C        -1.160004         3.242634         1.523987
 O        -0.550634         3.745655         2.736657
 C         0.885980         3.297872         2.782120
 C         1.296623         2.926667         1.367448
 C        -0.081927         2.612334         0.666024
 H         0.946364         0.313872         1.379738
 H        -2.474428         1.768101        -0.489182
 H        -2.476584         0.242391         0.392635
 H        -2.279238         1.469570         2.619080
 H        -1.973498         3.917804         1.164560
 H         1.452330         4.103662         3.238916
 H         0.785586         2.401287         3.416766
 H         1.638457         3.858709         0.952004
 H         2.170508         2.402753         1.335811
 H        -0.036266         2.806708        -0.364095
