19
Iteration:   427
 O         0.163976         0.130887         1.061522
 C        -0.669248         1.229861         0.857717
 C        -2.054333         1.148858         0.350614
 C        -1.791406         1.841814         1.724970
 C        -1.180393         3.192778         1.479180
 O        -0.500126         3.879772         2.642452
 C         0.858833         3.161073         2.788311
 C         1.277104         2.967106         1.330507
 C        -0.031549         2.581125         0.658341
 H        -0.354890        -0.574642         0.638843
 H        -2.438411         1.605935        -0.593285
 H        -2.364541         0.173249         0.430578
 H        -2.374827         1.303615         2.556059
 H        -1.791239         3.946201         0.941691
 H         1.549396         3.996911         3.139615
 H         0.855628         2.295255         3.423581
 H         1.660982         3.873812         0.978084
 H         2.034603         2.203747         1.125583
 H        -0.049281         3.005305        -0.363495
