19
Iteration:  2752
 O         0.118472         0.115646         1.055221
 C        -0.587553         1.251567         0.831424
 C        -2.008267         1.234098         0.407120
 C        -1.765776         1.840392         1.740165
 C        -1.175007         3.243653         1.524313
 O        -0.517649         3.742403         2.636644
 C         0.763807         3.050067         2.745823
 C         1.265824         3.022867         1.305718
 C        -0.058510         2.676160         0.501713
 H         0.702471         0.054143         1.833554
 H        -2.536645         1.830438        -0.370342
 H        -2.336756         0.107795         0.414667
 H        -2.179858         1.279910         2.566008
 H        -1.807451         3.996152         1.189855
 H         1.443742         3.440819         3.435576
 H         0.627866         1.957844         3.163015
 H         1.652466         4.033675         1.203875
 H         2.050981         2.268949         1.183204
 H        -0.192930         2.944301        -0.560749
