19
Iteration:  2812charge 0 multiplicity 1
 O         0.195710         0.129349         0.929470
 C        -0.709034         1.210093         0.872815
 C        -2.095099         1.227621         0.375809
 C        -1.692281         1.817303         1.754272
 C        -1.169480         3.206411         1.500077
 O        -0.545570         3.696634         2.585597
 C         0.763877         3.225767         2.832597
 C         1.279238         2.890723         1.330383
 C        -0.017741         2.685299         0.637903
 H         0.733936         0.021042         1.799201
 H        -2.514717         2.073692        -0.267854
 H        -2.567659         0.284850         0.329168
 H        -2.185959         1.345621         2.572774
 H        -1.875886         4.107578         1.206229
 H         1.431669         4.122461         3.216656
 H         0.717324         2.363167         3.543845
 H         1.838458         3.839008         0.934188
 H         1.952963         2.030243         1.017167
 H         0.005077         2.897734        -0.436508
