19
Iteration:  2594
 O         0.259589         0.143054         0.860123
 C        -0.616714         1.245652         0.811612
 C        -2.169672         1.132248         0.537037
 C        -1.708968         1.875387         1.772960
 C        -1.102930         3.161349         1.494211
 O        -0.528060         3.897377         2.636033
 C         0.732026         3.226917         2.822780
 C         1.242460         2.844207         1.382037
 C        -0.043385         2.606985         0.548549
 H         0.078950        -0.302649         0.049912
 H        -2.580432         1.529133        -0.323056
 H        -2.650304         0.105114         0.757717
 H        -2.049016         1.708826         2.806343
 H        -1.792417         3.847240         0.951430
 H         1.447986         3.906739         3.508081
 H         0.542997         2.287517         3.559324
 H         1.813966         3.706995         0.980214
 H         1.849381         2.025180         1.665108
 H        -0.100069         2.898645        -0.518507
