19
Iteration:  4507
 O         0.203924         0.053976         0.877045
 C        -0.616922         1.151965         0.807895
 C        -2.018631         1.220185         0.303067
 C        -1.739753         1.802834         1.773097
 C        -1.164654         3.233537         1.609375
 O        -0.563753         3.843826         2.711355
 C         0.773996         3.216967         2.823834
 C         1.232043         2.963808         1.316867
 C        -0.087774         2.602827         0.582593
 H         0.422962         0.012307         1.797800
 H        -2.157805         2.115921        -0.524652
 H        -2.572493         0.351860         0.201443
 H        -2.413980         1.314548         2.520684
 H        -1.892862         3.995685         1.230349
 H         1.601815         3.859118         3.399757
 H         0.745865         2.227801         3.327039
 H         1.827538         3.818916         0.958777
 H         1.945917         2.201816         1.342280
 H        -0.037800         2.894576        -0.464446
