19
Iteration:  1993charge 0 multiplicity 1
 O         0.141697         0.137024         0.952388
 C        -0.537025         1.302127         0.786321
 C        -2.046862         1.115043         0.500646
 C        -1.687290         1.883286         1.752730
 C        -1.235782         3.288549         1.544278
 O        -0.535687         3.850647         2.613888
 C         0.728101         3.158766         2.815161
 C         1.260847         2.869371         1.394802
 C        -0.005547         2.592515         0.549664
 H        -0.125377        -0.473257         0.309961
 H        -2.634269         1.502498        -0.348605
 H        -2.429504         0.005620         0.634817
 H        -1.939550         1.513718         2.774676
 H        -1.852002         4.102331         1.003397
 H         1.372332         3.872428         3.498139
 H         0.704183         2.128830         3.224686
 H         1.845377         3.697639         0.882931
 H         1.796018         1.930354         1.195397
 H         0.104787         2.876927        -0.547011
