19
Iteration:   886
 O         0.237789         0.142301         0.900649
 C        -0.655840         1.306056         0.780594
 C        -2.077124         1.124999         0.588706
 C        -1.644540         1.910619         1.776716
 C        -1.126928         3.299783         1.445770
 O        -0.477830         3.911123         2.562529
 C         0.652170         3.075541         2.846364
 C         1.201649         2.818179         1.374163
 C        -0.043137         2.582846         0.575942
 H        -0.145807        -0.624979         0.522771
 H        -2.631958         1.673993        -0.195195
 H        -2.385016         0.182973         0.914617
 H        -1.878227         1.364089         2.771898
 H        -1.838591         3.945670         0.983403
 H         1.267069         3.797493         3.427092
 H         0.319940         2.241111         3.443346
 H         1.547664         3.751197         1.007738
 H         1.891722         1.916618         1.334242
 H         0.279537         2.957126        -0.477113
