19
Iteration:  1477charge 0 multiplicity 1
 O         0.266571         0.261930         0.869308
 C        -0.668673         1.238354         0.857198
 C        -2.128420         1.108134         0.472559
 C        -1.665461         1.869435         1.797515
 C        -1.118038         3.253853         1.458678
 O        -0.563610         3.811030         2.631345
 C         0.738300         3.192377         2.794055
 C         1.251987         2.807200         1.400757
 C        -0.067180         2.578024         0.554113
 H        -0.165800        -0.563314         1.162437
 H        -2.453019         1.642944        -0.429094
 H        -2.646619         0.227560         0.517216
 H        -1.931118         1.531714         2.797898
 H        -1.640246         4.068950         0.925083
 H         1.331322         3.977200         3.206813
 H         0.627722         2.377594         3.644119
 H         1.812264         3.685388         1.011314
 H         1.877732         1.892369         1.463797
 H         0.086691         2.896609        -0.525566
