19
Iteration:  1953charge 0 multiplicity 1
 O         0.150839        -0.019706         1.026135
 C        -0.623912         1.198327         0.778768
 C        -2.137641         1.285791         0.457584
 C        -1.726482         1.789309         1.711198
 C        -1.163605         3.198022         1.566796
 O        -0.538793         3.851697         2.589877
 C         0.802018         3.195829         2.768462
 C         1.274611         3.067828         1.325094
 C         0.011167         2.583148         0.640339
 H         0.394712        -0.463285         0.130736
 H        -2.376005         1.954899        -0.301840
 H        -2.669783         0.297019         0.454870
 H        -2.064750         1.544355         2.646757
 H        -1.927574         3.863780         1.195617
 H         1.473650         3.640599         3.599029
 H         0.558592         2.200931         3.277215
 H         1.664785         4.020331         0.932139
 H         2.116044         2.432083         1.474003
 H         0.056565         2.843509        -0.433319
