19
Iteration:  1430
 O         0.186147         0.078318         0.874750
 C        -0.623521         1.184091         0.874714
 C        -2.016358         1.195017         0.438109
 C        -1.606740         1.814821         1.893257
 C        -1.150432         3.249919         1.493546
 O        -0.533828         3.942550         2.580598
 C         0.692711         3.214170         2.806147
 C         1.241497         2.893784         1.354394
 C        -0.054658         2.615949         0.580721
 H        -0.303932        -0.744978         0.539035
 H        -2.455175         1.833482        -0.277434
 H        -2.575146         0.238134         0.331091
 H        -2.102830         1.335701         2.801493
 H        -2.063252         3.872443         1.171103
 H         1.318727         3.750850         3.528826
 H         0.426069         2.182089         3.250517
 H         1.741819         3.745530         0.855249
 H         1.947760         1.948809         1.489139
 H         0.100704         2.967447        -0.459112
