19
Iteration:  2518charge 0 multiplicity 1
 O         0.154000         0.051494         1.110459
 C        -0.656995         1.159905         0.891632
 C        -2.027407         1.221343         0.351535
 C        -1.815854         1.831707         1.754297
 C        -1.132267         3.177088         1.510439
 O        -0.497439         3.741316         2.689506
 C         0.879250         3.185681         2.733014
 C         1.226702         3.127075         1.287781
 C        -0.050034         2.621918         0.551271
 H        -0.034131        -0.426155         0.242967
 H        -2.280789         1.737933        -0.570375
 H        -2.723892         0.326490         0.540299
 H        -2.370195         1.592743         2.623305
 H        -1.732020         4.006168         1.193165
 H         1.472057         4.001563         3.318666
 H         0.866098         2.207584         3.249444
 H         1.462204         4.137623         0.867622
 H         2.061074         2.457440         1.146892
 H        -0.048696         2.837759        -0.551567
