19
Iteration:  2305
 O         0.106787         0.073221         0.944899
 C        -0.589895         1.257905         0.727594
 C        -2.082288         1.136319         0.384541
 C        -1.719195         1.751022         1.739120
 C        -1.195532         3.185030         1.576432
 O        -0.537769         3.801843         2.650630
 C         0.840937         3.438743         2.780697
 C         1.291460         2.850169         1.445780
 C        -0.079009         2.665795         0.654777
 H         0.056561        -0.532083         0.128643
 H        -2.396051         1.724583        -0.418388
 H        -2.597837         0.124661         0.457170
 H        -1.914658         1.145705         2.591843
 H        -1.778420         3.948828         0.958044
 H         1.435539         4.382277         3.129528
 H         0.989648         2.773376         3.586033
 H         1.935965         3.511299         0.987027
 H         1.749051         1.803195         1.477848
 H         0.068125         3.165098        -0.320691
