19
Iteration:  1868
 O         0.228383         0.158194         1.036847
 C        -0.610009         1.237482         0.807674
 C        -2.084165         1.206086         0.396689
 C        -1.814682         1.875752         1.741494
 C        -1.199704         3.249747         1.493472
 O        -0.529159         3.633771         2.658106
 C         0.819886         3.244518         2.782245
 C         1.217939         2.928080         1.358893
 C        -0.011098         2.642595         0.576901
 H         0.010312        -0.522505         0.430460
 H        -2.543850         1.846112        -0.440959
 H        -2.588206         0.162074         0.663142
 H        -2.293144         1.566641         2.623906
 H        -1.797066         4.057652         1.054851
 H         1.526083         3.974394         3.013022
 H         0.986557         2.413730         3.474964
 H         1.718010         3.842398         0.998684
 H         2.042201         2.090588         1.462069
 H         0.187507         2.751944        -0.475125
