19
Iteration:  3423charge 0 multiplicity 1
 O         0.071132        -0.005121         0.864427
 C        -0.579581         1.220070         0.850213
 C        -2.020537         1.277541         0.288669
 C        -1.655380         1.782061         1.734965
 C        -1.239142         3.192862         1.634635
 O        -0.496514         3.848235         2.647222
 C         0.780141         3.238511         2.791963
 C         1.239671         2.988147         1.382898
 C        -0.031154         2.585158         0.639711
 H         0.351425        -0.145968         1.792810
 H        -2.447539         1.887407        -0.517913
 H        -2.674478         0.363723         0.310384
 H        -2.105720         1.087923         2.549505
 H        -1.932529         3.792649         1.156972
 H         1.451007         3.971855         3.240879
 H         0.826603         2.293629         3.367799
 H         1.573796         3.952749         0.971612
 H         2.222523         2.416978         1.299593
 H        -0.134220         2.940695        -0.431296
