19
Iteration:  2391
 O         0.081806         0.009799         0.828297
 C        -0.673170         1.248982         0.766948
 C        -2.112634         1.091338         0.490701
 C        -1.567288         1.865638         1.795604
 C        -1.171312         3.194270         1.465849
 O        -0.500865         3.904572         2.605405
 C         0.694669         3.191076         2.845583
 C         1.280981         2.981019         1.441236
 C        -0.008870         2.643121         0.553339
 H         0.772153         0.172239         1.448798
 H        -2.706389         1.564803        -0.204473
 H        -2.328172         0.016675         0.712564
 H        -1.841611         1.583977         2.828969
 H        -1.757041         3.994212         0.976975
 H         1.206387         3.615228         3.636650
 H         0.448536         2.097129         3.356582
 H         1.677493         3.898573         1.089135
 H         2.160046         2.350178         1.187592
 H         0.014467         2.958659        -0.486610
