19
Iteration:  3019charge 0 multiplicity 1
 O         0.048340        -0.038150         0.990288
 C        -0.646152         1.150164         0.791374
 C        -2.031174         1.189193         0.292972
 C        -1.672735         1.702532         1.749276
 C        -1.175783         3.269675         1.507089
 O        -0.501018         3.795983         2.713693
 C         0.895625         3.208169         2.781356
 C         1.266972         3.096685         1.335136
 C        -0.053398         2.729956         0.604314
 H         0.053419        -0.050670         1.959204
 H        -2.352495         1.979127        -0.522166
 H        -2.703352         0.262448         0.264112
 H        -2.379992         1.172360         2.444644
 H        -1.846987         4.046686         1.208066
 H         1.420573         3.887168         3.485399
 H         0.775683         2.258905         3.397585
 H         1.482055         4.127306         0.995030
 H         2.166882         2.550110         1.060628
 H        -0.116197         2.942838        -0.488629
