19
Iteration:  4645
 O         0.122695         0.114492         0.865955
 C        -0.631414         1.247036         0.748687
 C        -2.043297         1.202277         0.405952
 C        -1.628373         1.784288         1.772661
 C        -1.162825         3.229960         1.491106
 O        -0.613507         3.785768         2.682018
 C         0.756829         3.203663         2.812354
 C         1.272494         2.894753         1.413822
 C        -0.015374         2.700160         0.586346
 H         0.379603        -0.106027         1.822293
 H        -2.499748         1.854623        -0.307999
 H        -2.335738         0.241696         0.525824
 H        -1.974924         1.118153         2.630039
 H        -1.800435         3.967198         1.011692
 H         1.342907         3.861980         3.342744
 H         0.546450         2.269489         3.395750
 H         1.736143         3.734020         0.966557
 H         1.999290         2.047995         1.387641
 H         0.132161         2.930122        -0.513003
