19
Iteration:  4061
 O         0.152064         0.034873         0.761143
 C        -0.489957         1.242024         0.823837
 C        -2.079595         1.180055         0.501719
 C        -1.690394         1.849045         1.748684
 C        -1.157884         3.268527         1.476335
 O        -0.602452         3.836761         2.658391
 C         0.720219         3.112895         2.802858
 C         1.253336         2.886115         1.381678
 C        -0.057344         2.680346         0.640976
 H         0.687887         0.030022         1.553230
 H        -2.421993         1.898211        -0.263413
 H        -2.591706         0.150179         0.635482
 H        -1.938095         1.720948         2.708845
 H        -1.939628         4.008310         1.091249
 H         1.379697         3.788415         3.508724
 H         0.501278         2.226436         3.433338
 H         1.582002         3.837279         1.093606
 H         2.119541         2.245998         1.205998
 H         0.096775         2.981778        -0.396498
