19
Iteration:  2509
 O         0.131303         0.057096         1.083451
 C        -0.605796         1.248151         0.874123
 C        -2.035700         1.201212         0.433375
 C        -1.811119         1.828868         1.744069
 C        -1.140055         3.245801         1.488080
 O        -0.519047         3.657561         2.694238
 C         0.876599         3.203842         2.734896
 C         1.213509         3.101164         1.243806
 C        -0.048991         2.636414         0.601277
 H        -0.048717        -0.806235         0.565990
 H        -2.178872         1.904484        -0.442327
 H        -2.661277         0.129015         0.401644
 H        -2.622019         1.608919         2.489380
 H        -1.690364         3.961814         0.925709
 H         1.456665         3.940817         3.258869
 H         0.988861         2.329870         3.209414
 H         1.517446         4.101797         0.921411
 H         2.170054         2.515942         1.087742
 H         0.144665         2.756226        -0.476372
