19
Iteration:  1004charge 0 multiplicity 1
 O         0.055851         0.022950         1.143511
 C        -0.654726         1.222546         0.815217
 C        -2.068439         1.237964         0.328074
 C        -1.766701         1.766771         1.703743
 C        -1.174133         3.214739         1.552336
 O        -0.535307         3.695459         2.710798
 C         0.871115         3.350747         2.695402
 C         1.334382         2.977491         1.316038
 C        -0.011101         2.660506         0.615333
 H         0.158506        -0.440777         0.248065
 H        -2.360713         1.974678        -0.560857
 H        -2.421297         0.264840         0.176434
 H        -1.977599         1.391416         2.762996
 H        -2.007510         3.892479         1.180887
 H         1.303787         4.311389         2.939864
 H         1.236168         2.550557         3.345822
 H         1.741990         3.830255         0.737939
 H         1.903895         2.010691         1.385740
 H        -0.021547         3.010946        -0.377728
