19
Iteration:  2616charge 0 multiplicity 1
 O         0.200848         0.064164         0.739174
 C        -0.614570         1.234073         0.828475
 C        -2.013505         1.108856         0.497358
 C        -1.706027         1.840813         1.882793
 C        -1.231775         3.298320         1.477412
 O        -0.505877         3.952947         2.560109
 C         0.771090         3.176813         2.787111
 C         1.250842         2.879464         1.437702
 C        -0.037304         2.624215         0.658992
 H        -0.418520        -0.737374         0.754698
 H        -2.491903         1.654438        -0.218893
 H        -2.520825         0.082617         0.605122
 H        -2.110544         1.266586         2.738339
 H        -2.022372         3.917996         0.989481
 H         1.409078         3.910870         3.466476
 H         0.472899         2.382134         3.593100
 H         1.736052         3.836158         1.185878
 H         1.922427         2.054878         1.462248
 H         0.141064         2.882777        -0.405896
