19
Iteration:  2402
 O         0.123179         0.059620         0.836065
 C        -0.575506         1.212650         0.789836
 C        -2.122913         1.109182         0.546796
 C        -1.651752         1.794599         1.781598
 C        -1.112529         3.293601         1.451920
 O        -0.495987         3.863356         2.603786
 C         0.692865         3.135589         2.842127
 C         1.250963         2.989565         1.405354
 C        -0.026457         2.682021         0.506918
 H         0.562728        -0.013768         1.714901
 H        -2.538669         1.659246        -0.238109
 H        -2.636244         0.146434         0.711001
 H        -2.082855         1.565888         2.792673
 H        -1.992073         3.887616         1.124553
 H         1.330869         3.773493         3.373008
 H         0.445014         2.051843         3.346038
 H         1.608850         3.937630         1.099056
 H         1.978201         2.148151         1.483128
 H         0.089359         2.937525        -0.544032
