19
Iteration:  3199
 O         0.105160         0.056932         0.871025
 C        -0.637538         1.241311         0.790721
 C        -2.057571         1.203533         0.309499
 C        -1.738727         1.795136         1.769890
 C        -1.142534         3.173812         1.563353
 O        -0.532740         3.788444         2.680489
 C         0.795909         3.397516         2.797485
 C         1.235267         2.877695         1.417051
 C        -0.044304         2.573479         0.619732
 H         0.939084         0.372215         1.174555
 H        -2.544365         1.971333        -0.318308
 H        -2.273500         0.184825         0.165633
 H        -2.129890         1.392374         2.752780
 H        -1.827762         3.840352         1.193514
 H         1.434167         4.210814         3.315082
 H         0.831709         2.409474         3.411773
 H         1.898839         3.548669         0.807844
 H         1.714096         1.939918         1.668323
 H         0.118529         2.916354        -0.404412
