19
Iteration:  1425
 O         0.193860         0.056738         0.880381
 C        -0.611171         1.210743         0.885007
 C        -2.034627         1.229171         0.475985
 C        -1.619120         1.804770         1.869726
 C        -1.177594         3.218667         1.459442
 O        -0.530308         3.918576         2.604249
 C         0.713349         3.214203         2.809039
 C         1.219254         2.917349         1.354424
 C        -0.038284         2.583073         0.554420
 H        -0.301592        -0.629016         0.446434
 H        -2.502906         2.006001        -0.232076
 H        -2.451841         0.201735         0.277232
 H        -2.072091         1.448527         2.736177
 H        -1.893866         3.924214         1.144105
 H         1.305368         3.802698         3.579463
 H         0.501024         2.348933         3.396037
 H         1.663825         3.781253         0.851182
 H         1.745779         2.056108         1.444780
 H         0.228460         2.790314        -0.486861
