19
Iteration:  3411charge 0 multiplicity 1
 O         0.107220        -0.100003         0.894947
 C        -0.614327         1.195257         0.792027
 C        -1.978202         1.316590         0.346493
 C        -1.700191         1.732647         1.747569
 C        -1.105483         3.177125         1.604366
 O        -0.540565         3.860134         2.665907
 C         0.785081         3.194123         2.821543
 C         1.195024         3.047661         1.293319
 C        -0.073222         2.687795         0.625163
 H         0.312774        -0.218246         1.808584
 H        -2.125163         2.124030        -0.408428
 H        -2.411997         0.326815         0.340093
 H        -2.360752         1.411193         2.599083
 H        -1.741402         3.928794         1.253549
 H         1.480696         3.886871         3.357413
 H         0.525101         2.398177         3.516532
 H         1.536007         4.059049         0.941607
 H         1.885804         2.180433         1.113659
 H        -0.018522         2.985176        -0.459690
