19
Iteration:   431
 O         0.142269         0.140357         1.071049
 C        -0.646418         1.266715         0.831867
 C        -2.047121         1.135550         0.350226
 C        -1.798580         1.855168         1.737885
 C        -1.179136         3.177620         1.465525
 O        -0.481655         3.853762         2.646009
 C         0.854198         3.169506         2.815524
 C         1.255952         2.961386         1.356909
 C        -0.031081         2.586676         0.621021
 H        -0.361076        -0.595736         0.628112
 H        -2.337511         1.636363        -0.594826
 H        -2.396325         0.045918         0.551208
 H        -2.172671         1.462518         2.583183
 H        -1.816743         3.859609         0.904461
 H         1.484199         3.944173         3.089616
 H         0.930126         2.263117         3.483164
 H         1.548620         3.962148         0.868322
 H         1.998762         2.147562         1.140225
 H        -0.084372         3.008710        -0.456585
