19
Iteration:  3067charge 0 multiplicity 1
 O         0.125103         0.040395         0.896219
 C        -0.670603         1.243118         0.936197
 C        -2.134627         1.168972         0.291636
 C        -1.822480         1.853180         1.696069
 C        -1.241450         3.207070         1.511052
 O        -0.513013         3.684420         2.713610
 C         0.905006         3.311459         2.786925
 C         1.328779         2.974685         1.363201
 C        -0.008976         2.633349         0.620932
 H         0.814059         0.151097         1.584030
 H        -2.322412         1.758905        -0.571370
 H        -2.427408         0.164587         0.124645
 H        -2.139272         1.631142         2.706628
 H        -1.904896         3.955853         1.228198
 H         1.348400         4.202764         3.219748
 H         1.027572         2.559632         3.559708
 H         1.873692         3.785080         0.893246
 H         2.013450         2.110048         1.265447
 H        -0.098318         2.839564        -0.433711
