19
Iteration:  3500charge 0 multiplicity 1
 O         0.145486         0.090526         0.813699
 C        -0.588573         1.229962         0.799610
 C        -2.090845         1.191490         0.432620
 C        -1.714413         1.782565         1.754804
 C        -1.185944         3.202824         1.568658
 O        -0.499976         3.882782         2.588036
 C         0.695334         3.191533         2.804761
 C         1.286443         2.860308         1.412228
 C        -0.034995         2.694438         0.681372
 H         0.893991         0.359816         1.342138
 H        -2.495496         1.768035        -0.434785
 H        -2.540989         0.144946         0.620593
 H        -2.112615         1.303618         2.732102
 H        -1.958312         3.818652         1.134352
 H         1.424541         3.767879         3.365397
 H         0.453724         2.232671         3.273400
 H         1.728102         3.759674         0.956584
 H         1.993314         1.934033         1.340768
 H         0.132760         2.969460        -0.406505
