19
Iteration:  2615charge 0 multiplicity 1
 O         0.203567         0.066138         0.741145
 C        -0.622203         1.228228         0.831486
 C        -2.015522         1.105747         0.498871
 C        -1.706439         1.840600         1.882856
 C        -1.226541         3.306270         1.475293
 O        -0.502044         3.943325         2.557038
 C         0.766941         3.180139         2.793305
 C         1.250563         2.878415         1.436782
 C        -0.037831         2.625923         0.659393
 H        -0.394668        -0.730011         0.715268
 H        -2.490809         1.643115        -0.204952
 H        -2.516735         0.088826         0.622869
 H        -2.116791         1.280114         2.700100
 H        -2.049352         3.945692         0.991155
 H         1.390492         3.922781         3.485774
 H         0.484162         2.404854         3.579970
 H         1.757208         3.848513         1.182001
 H         1.913716         2.034341         1.421792
 H         0.152687         2.901270        -0.403006
