19
Iteration:  2894
 O         0.083879        -0.020996         0.746363
 C        -0.611872         1.164678         0.930122
 C        -2.105345         1.302394         0.426876
 C        -1.565778         1.824470         1.845351
 C        -1.155475         3.168630         1.467779
 O        -0.611267         3.867258         2.671547
 C         0.694238         3.256613         2.785280
 C         1.319176         2.967788         1.392837
 C         0.025733         2.605386         0.579612
 H         0.601766        -0.234840         1.559423
 H        -2.183900         1.867998        -0.460749
 H        -2.643575         0.278098         0.533703
 H        -1.924718         1.297193         2.756625
 H        -1.912108         3.859706         0.991489
 H         1.308867         3.905500         3.355361
 H         0.427980         2.339236         3.383429
 H         1.605607         3.859077         0.901917
 H         2.124330         2.225148         1.386001
 H         0.074828         3.047720        -0.427745
