19
Iteration:   725
 O         0.024123         0.079719         1.157371
 C        -0.620085         1.244218         0.774946
 C        -2.054780         1.213214         0.377289
 C        -1.668865         1.684780         1.744012
 C        -1.186313         3.226785         1.518051
 O        -0.463726         3.825617         2.620109
 C         0.834857         3.222828         2.727503
 C         1.265308         2.967227         1.345853
 C        -0.052587         2.664117         0.589841
 H         0.453413        -0.193580         0.354588
 H        -2.486965         1.900298        -0.375688
 H        -2.521747         0.283263         0.450938
 H        -2.197229         1.285890         2.757645
 H        -1.947568         3.872755         0.960400
 H         1.447321         4.007216         3.189446
 H         0.741313         2.236867         3.310947
 H         1.682426         3.783298         0.769288
 H         1.863597         2.058878         1.393375
 H         0.041815         3.068122        -0.364148
