19
Iteration:  1620
 O         0.234471         0.159282         1.100306
 C        -0.646253         1.292485         0.775974
 C        -2.063435         1.122092         0.396376
 C        -1.743988         1.817630         1.719156
 C        -1.213943         3.248103         1.572407
 O        -0.457176         3.851860         2.635951
 C         0.753062         3.161003         2.784351
 C         1.229351         2.812873         1.361874
 C        -0.109267         2.675783         0.537373
 H         0.580702        -0.257419         0.315744
 H        -2.360606         1.692831        -0.439664
 H        -2.657151         0.162506         0.382023
 H        -2.120546         1.386383         2.662749
 H        -1.918020         4.016217         1.114620
 H         1.490769         3.818253         3.205104
 H         0.610071         2.309805         3.389421
 H         1.767218         3.744421         0.930262
 H         1.913578         1.906125         1.246170
 H         0.045346         2.954996        -0.539581
