19
Iteration:   102charge 0 multiplicity 1
 O         0.187965         0.130222         0.973579
 C        -0.635630         1.234244         0.871581
 C        -2.055936         1.164628         0.386158
 C        -1.635889         1.780134         1.808040
 C        -1.106824         3.291721         1.452656
 O        -0.491964         3.898479         2.545564
 C         0.695746         3.245722         2.870926
 C         1.148738         2.810944         1.391928
 C        -0.059309         2.563525         0.613429
 H        -0.237375        -0.549420         0.331740
 H        -2.417674         1.884298        -0.384179
 H        -2.413693         0.078712         0.415484
 H        -1.850513         1.422919         2.874001
 H        -1.739502         4.020603         0.870121
 H         1.269334         4.014968         3.335872
 H         0.535652         2.341988         3.533084
 H         1.811905         3.669534         0.972283
 H         1.978032         2.050812         1.205781
 H        -0.026612         2.986314        -0.386762
