19
Iteration:  2519charge 0 multiplicity 1
 O         0.154696         0.051312         1.111202
 C        -0.660043         1.154467         0.897405
 C        -2.027318         1.223310         0.345325
 C        -1.809508         1.838427         1.746747
 C        -1.138421         3.175923         1.514543
 O        -0.493595         3.746946         2.688611
 C         0.874469         3.187235         2.737804
 C         1.230932         3.127906         1.289468
 C        -0.047104         2.614848         0.549562
 H        -0.020994        -0.405462         0.225851
 H        -2.306034         1.744399        -0.590207
 H        -2.735953         0.293760         0.542601
 H        -2.345538         1.570931         2.658613
 H        -1.745202         3.993171         1.222786
 H         1.458895         3.956218         3.307040
 H         0.868073         2.249468         3.225870
 H         1.448276         4.127955         0.870149
 H         2.069507         2.431124         1.131519
 H        -0.086793         2.862078        -0.541951
