19
Iteration:  4742
 O         0.080798         0.063234         0.926298
 C        -0.625435         1.254244         0.797901
 C        -2.028019         1.195333         0.353363
 C        -1.760727         1.756956         1.692987
 C        -1.114741         3.238932         1.511564
 O        -0.511112         3.792042         2.724862
 C         0.739658         3.167135         2.840173
 C         1.228019         2.995199         1.415168
 C         0.023327         2.627743         0.508625
 H         0.847262         0.340099         1.508308
 H        -2.501848         1.795887        -0.533525
 H        -2.414219         0.239440         0.507533
 H        -2.139236         1.206295         2.641627
 H        -1.777866         4.078409         1.256680
 H         1.262935         3.848987         3.388572
 H         0.660606         2.206269         3.380306
 H         1.558580         3.924882         1.100520
 H         2.018707         2.386761         1.233063
 H         0.074789         2.923164        -0.535030
