19
Iteration:  3572charge 0 multiplicity 1
 O         0.036654         0.057943         0.861217
 C        -0.569530         1.252392         0.856787
 C        -2.144212         1.133161         0.359209
 C        -1.752258         1.790584         1.709387
 C        -1.134632         3.205189         1.536390
 O        -0.533105         3.749482         2.675710
 C         0.811926         3.248341         2.826739
 C         1.254380         3.025450         1.390749
 C         0.028473         2.627305         0.623874
 H         0.811613         0.147418         1.387923
 H        -2.404727         1.695066        -0.489802
 H        -2.426002         0.042593         0.436410
 H        -2.184575         1.351041         2.681623
 H        -1.603450         4.116914         1.005594
 H         1.437076         4.124183         3.225919
 H         1.009918         2.393482         3.509677
 H         1.642878         3.944480         0.878837
 H         1.879525         2.183474         1.243643
 H         0.095177         3.152478        -0.303364
