19
Iteration:    84
 O         0.123110         0.014289         0.971926
 C        -0.628128         1.198954         0.783803
 C        -2.123395         1.241687         0.461763
 C        -1.685642         1.809014         1.758718
 C        -1.176626         3.165942         1.510134
 O        -0.590970         3.880135         2.567857
 C         0.744429         3.345965         2.837865
 C         1.306606         2.907580         1.448017
 C         0.076995         2.580375         0.561912
 H         0.317473        -0.482408         0.089647
 H        -2.460597         1.928096        -0.291207
 H        -2.678812         0.244214         0.684088
 H        -2.190495         1.413633         2.702765
 H        -1.974588         3.857514         1.106417
 H         1.509348         4.086656         3.182707
 H         0.837233         2.399831         3.415924
 H         1.933812         3.739549         0.974430
 H         2.019344         2.041400         1.538981
 H         0.251448         2.933780        -0.576603
