19
Iteration:  4383
 O         0.162617         0.073219         0.879961
 C        -0.628095         1.238590         0.775472
 C        -2.109645         1.187978         0.357425
 C        -1.662235         1.784318         1.683675
 C        -1.158464         3.202043         1.550043
 O        -0.579016         3.822849         2.704680
 C         0.784485         3.212332         2.840044
 C         1.287438         2.937859         1.446198
 C        -0.062730         2.671742         0.538644
 H         0.556120         0.049502         1.734757
 H        -2.511190         1.732532        -0.495298
 H        -2.615866         0.108357         0.588359
 H        -2.005357         1.346197         2.550182
 H        -1.844143         3.913753         1.154915
 H         1.452579         3.848091         3.406579
 H         0.829663         2.326685         3.419987
 H         1.662570         3.794867         1.074045
 H         2.053653         2.160599         1.207689
 H        -0.074208         3.030192        -0.491915
