19
Iteration:  1253charge 0 multiplicity 1
 O         0.227504         0.208381         1.053851
 C        -0.572583         1.243330         0.887595
 C        -2.120684         1.208418         0.409456
 C        -1.700742         1.836342         1.832137
 C        -1.151130         3.228951         1.509119
 O        -0.514051         3.859754         2.597255
 C         0.705888         3.068183         2.778467
 C         1.222956         2.847577         1.316882
 C        -0.037542         2.590718         0.523008
 H         0.172096        -0.308816         0.169029
 H        -2.578174         1.941036        -0.246730
 H        -2.387101         0.236573         0.230043
 H        -2.058868         1.355574         2.693206
 H        -1.932458         3.939700         1.173671
 H         1.324228         3.831152         3.243269
 H         0.448222         2.117645         3.283879
 H         1.609674         3.910326         1.116580
 H         2.038395         2.150863         1.189273
 H         0.052909         2.923839        -0.534433
