19
Iteration:    69charge 0 multiplicity 1
 O         0.046603        -0.115432         0.955743
 C        -0.619638         1.171736         0.818994
 C        -2.147176         1.233951         0.417017
 C        -1.670797         1.759908         1.741674
 C        -1.115150         3.204825         1.511516
 O        -0.570286         3.873949         2.645880
 C         0.746292         3.431710         2.774978
 C         1.384638         2.960018         1.381577
 C         0.060809         2.612502         0.637241
 H         0.562133        -0.117532         0.122482
 H        -2.726837         1.791932        -0.400972
 H        -2.577599         0.223593         0.381401
 H        -2.021954         1.407437         2.712616
 H        -1.773780         3.912307         0.938886
 H         1.048203         4.194865         3.425695
 H         0.584876         2.644222         3.537326
 H         1.986133         3.789791         0.811624
 H         1.885251         1.982854         1.660284
 H        -0.002565         2.998987        -0.399863
