19
Iteration:  2889charge 0 multiplicity 1
 O         0.059993         0.004967         0.763554
 C        -0.634994         1.178033         0.873137
 C        -2.079557         1.293044         0.427425
 C        -1.586516         1.765778         1.847403
 C        -1.082945         3.176914         1.505930
 O        -0.600525         3.849181         2.626176
 C         0.687578         3.279193         2.808413
 C         1.287904         2.991095         1.382817
 C         0.012896         2.566410         0.619557
 H         0.666964        -0.279853         1.455229
 H        -2.452998         1.934055        -0.471956
 H        -2.481038         0.349695         0.520978
 H        -2.117137         1.381720         2.732559
 H        -1.712294         3.921675         0.920207
 H         1.189211         3.995397         3.559480
 H         0.728665         2.335354         3.400630
 H         1.700086         3.910923         0.829360
 H         2.197978         2.335007         1.462391
 H        -0.075695         2.906280        -0.420928
