19
Iteration:  3720
 O         0.190507         0.020464         0.894901
 C        -0.644432         1.251650         0.777385
 C        -2.054860         1.239850         0.360647
 C        -1.773650         1.776512         1.770806
 C        -1.254761         3.221583         1.545669
 O        -0.445570         3.854256         2.659741
 C         0.748491         3.208400         2.851043
 C         1.238239         2.877766         1.388730
 C        -0.032946         2.647944         0.560473
 H         1.160669         0.373453         0.933230
 H        -2.674529         1.656900        -0.481054
 H        -2.549231         0.138174         0.522559
 H        -2.442944         1.342486         2.629024
 H        -1.974899         4.026202         1.277373
 H         1.539472         3.908967         3.279011
 H         0.776407         2.276142         3.488750
 H         1.766935         3.756360         1.046138
 H         2.004605         2.147027         1.636522
 H         0.013607         3.156905        -0.459778
