19
Iteration:  3537
 O         0.111620        -0.002413         0.822183
 C        -0.610581         1.257693         0.786155
 C        -2.040883         1.222333         0.483640
 C        -1.597575         1.817516         1.768720
 C        -1.150719         3.199436         1.537760
 O        -0.563982         3.869225         2.660021
 C         0.711003         3.157245         2.767145
 C         1.179158         2.963313         1.361407
 C         0.014799         2.632432         0.654860
 H         0.547540        -0.217509         1.616158
 H        -2.364285         1.827154        -0.384667
 H        -2.569582         0.321168         0.431929
 H        -2.024265         1.385236         2.614233
 H        -1.735048         3.969985         0.960040
 H         1.186584         3.925409         3.422954
 H         0.523883         2.194620         3.301701
 H         1.708736         3.897266         1.074483
 H         2.081986         2.288421         1.161872
 H         0.070300         3.003435        -0.427515
