19
Iteration:  2092charge 0 multiplicity 1
 O         0.065185         0.054651         0.989015
 C        -0.587906         1.215762         0.798278
 C        -2.112882         1.165469         0.438241
 C        -1.703705         1.807843         1.711029
 C        -1.076384         3.162891         1.471381
 O        -0.540472         3.789452         2.717407
 C         0.766117         3.253346         2.841662
 C         1.242959         3.058159         1.294038
 C         0.058409         2.617969         0.613345
 H         0.084959        -0.635514         0.287886
 H        -2.582646         1.785747        -0.299761
 H        -2.775061         0.198615         0.556356
 H        -2.002029         1.505156         2.650024
 H        -1.826564         3.829808         0.925687
 H         1.434420         3.987221         3.354024
 H         0.740595         2.494653         3.530755
 H         1.579043         4.023764         0.731434
 H         2.086000         2.401874         1.196081
 H         0.080979         2.989329        -0.435890
