19
Iteration:  1935
 O         0.051134         0.059430         1.072291
 C        -0.628571         1.221222         0.848774
 C        -2.031877         1.245250         0.270919
 C        -1.629952         1.709059         1.837526
 C        -1.174472         3.187514         1.567993
 O        -0.484049         3.849273         2.670609
 C         0.767916         3.239135         2.760755
 C         1.252916         2.992727         1.330321
 C        -0.024856         2.584630         0.544713
 H         0.352630        -0.243147         0.137279
 H        -2.295923         2.148287        -0.463043
 H        -2.645470         0.405126         0.316900
 H        -2.176913         1.175758         2.660130
 H        -1.856482         3.928636         1.116379
 H         1.255677         3.977544         3.298461
 H         0.684639         2.404414         3.463445
 H         1.578237         3.935663         0.908656
 H         2.040733         2.160298         1.053891
 H        -0.128611         2.876888        -0.491445
