19
Iteration:   880charge 0 multiplicity 1
 O         0.261413         0.183332         0.894574
 C        -0.650809         1.300660         0.842015
 C        -2.115095         1.147025         0.604211
 C        -1.646982         1.926473         1.804126
 C        -1.180746         3.267492         1.411518
 O        -0.474170         3.875782         2.542343
 C         0.658926         3.043425         2.850723
 C         1.182424         2.836610         1.388929
 C         0.019891         2.604713         0.548473
 H        -0.225610        -0.612679         0.466253
 H        -2.624761         1.659614        -0.199594
 H        -2.388522         0.033845         0.797833
 H        -2.005572         1.668466         2.800698
 H        -1.920476         3.879564         0.800442
 H         1.372486         3.644527         3.415748
 H         0.381249         2.153483         3.519395
 H         1.758994         3.774223         1.027136
 H         1.848691         2.030168         1.249844
 H         0.257198         2.783977        -0.463811
