19
Iteration:  4004charge 0 multiplicity 1
 O         0.099845         0.049967         0.824235
 C        -0.622644         1.267515         0.778700
 C        -2.025839         1.228399         0.359290
 C        -1.684087         1.738073         1.783187
 C        -1.156806         3.169489         1.586639
 O        -0.511525         3.783612         2.633633
 C         0.793104         3.318961         2.849417
 C         1.218287         2.900265         1.406306
 C        -0.068965         2.651438         0.578459
 H         0.732187         0.172250         1.615415
 H        -2.437599         1.754892        -0.489762
 H        -2.564513         0.380719         0.456752
 H        -2.178794         1.412734         2.711498
 H        -2.060468         3.761196         1.304633
 H         1.474152         4.060212         3.409473
 H         0.676758         2.368829         3.416770
 H         1.704968         3.787747         0.949267
 H         1.928129         2.109488         1.462991
 H         0.126713         3.026587        -0.468758
