19
Iteration:  3979charge 0 multiplicity 1
 O         0.121309        -0.058991         0.786865
 C        -0.630802         1.248724         0.828257
 C        -2.027024         1.213732         0.361330
 C        -1.771706         1.811184         1.773320
 C        -1.129060         3.314918         1.518394
 O        -0.605772         3.741906         2.778904
 C         0.808498         3.337319         2.778946
 C         1.270102         2.937190         1.337663
 C        -0.029992         2.612987         0.657041
 H         0.887895         0.140887         1.432942
 H        -2.380157         1.639448        -0.498320
 H        -2.539146         0.232328         0.466895
 H        -2.189648         1.293035         2.758823
 H        -1.794657         4.009119         1.060232
 H         1.475121         4.088674         3.106866
 H         0.831443         2.439934         3.476040
 H         1.804007         3.856765         0.902760
 H         2.000408         2.126496         1.463692
 H         0.021065         2.993510        -0.477149
