19
Iteration:  2982charge 0 multiplicity 1
 O         0.111975         0.051320         0.919542
 C        -0.634100         1.293126         0.910390
 C        -1.999365         1.149942         0.408646
 C        -1.727902         1.830012         1.779443
 C        -1.210449         3.324245         1.469434
 O        -0.553694         3.739247         2.687893
 C         0.790161         3.134481         2.805416
 C         1.237819         2.972850         1.322894
 C        -0.005981         2.608330         0.546628
 H         1.004193         0.227320         1.341144
 H        -2.278435         1.970442        -0.327015
 H        -2.579947         0.222554         0.400672
 H        -2.311136         1.473781         2.592668
 H        -1.909097         4.102467         0.893015
 H         1.470827         3.826163         3.319987
 H         0.802846         2.121931         3.289103
 H         1.629722         3.996005         1.037011
 H         2.028759         2.219926         1.173217
 H         0.054799         2.893940        -0.544200
