19
Iteration:  4914charge 0 multiplicity 1
 O         0.063366         0.073856         0.887971
 C        -0.622052         1.216775         0.761301
 C        -1.955487         1.216969         0.327054
 C        -1.717380         1.702468         1.707161
 C        -1.218792         3.247497         1.584805
 O        -0.528962         3.821485         2.697791
 C         0.784870         3.233171         2.780220
 C         1.318971         2.935890         1.410506
 C        -0.084696         2.680916         0.596717
 H         0.445019         0.001844         1.809809
 H        -2.381305         1.856982        -0.369029
 H        -2.381425         0.223679         0.162903
 H        -2.072487         1.138537         2.672214
 H        -1.882686         4.013282         1.252891
 H         1.332524         3.935236         3.312518
 H         0.696821         2.378440         3.476899
 H         1.934512         3.796442         1.100539
 H         1.881225         2.027848         1.460517
 H         0.060958         2.964079        -0.464898
