19
Iteration:  4923charge 0 multiplicity 1
 O         0.121304         0.036454         0.891539
 C        -0.577329         1.321421         0.779287
 C        -2.030446         1.205718         0.331307
 C        -1.725885         1.804195         1.690896
 C        -1.200673         3.188128         1.607560
 O        -0.535747         3.792860         2.640131
 C         0.749503         3.190560         2.781885
 C         1.283483         2.880217         1.412629
 C        -0.040360         2.705540         0.639800
 H         0.482888        -0.013054         1.821263
 H        -2.290502         1.879812        -0.485823
 H        -2.349632         0.247041         0.453421
 H        -1.929852         1.319396         2.596277
 H        -2.008522         3.852628         1.296406
 H         1.314721         4.023072         3.321026
 H         0.626022         2.341286         3.478496
 H         1.746343         3.742315         0.860381
 H         2.000517         1.988634         1.418332
 H        -0.209082         3.263375        -0.387662
