19
Iteration:  3023charge 0 multiplicity 1
 O         0.058957        -0.047028         1.002396
 C        -0.657193         1.154500         0.808628
 C        -2.041014         1.240399         0.279252
 C        -1.655438         1.704959         1.731160
 C        -1.180365         3.271833         1.508416
 O        -0.499803         3.783106         2.730449
 C         0.876218         3.221064         2.802330
 C         1.268391         3.096373         1.332361
 C        -0.093720         2.707586         0.563485
 H         0.092198        -0.200307         1.969814
 H        -2.336454         1.835061        -0.458818
 H        -2.597582         0.281450         0.117657
 H        -2.251309         1.228112         2.553745
 H        -1.910507         4.045668         1.287419
 H         1.479152         3.928080         3.364354
 H         0.874302         2.318095         3.396714
 H         1.492084         4.080826         0.984317
 H         2.180512         2.511226         1.045197
 H         0.081491         2.893518        -0.487068
