19
Iteration:  1105charge 0 multiplicity 1
 O         0.284908         0.204087         0.955274
 C        -0.681599         1.232151         0.810285
 C        -2.124675         1.236774         0.467853
 C        -1.652644         1.859058         1.780505
 C        -1.140442         3.200314         1.504366
 O        -0.536203         3.823735         2.613465
 C         0.684938         3.139124         2.816713
 C         1.238664         2.865547         1.368027
 C        -0.024007         2.633127         0.520947
 H        -0.128125        -0.620809         1.188834
 H        -2.579219         1.660935        -0.427232
 H        -2.539128         0.184570         0.613532
 H        -1.983221         1.545076         2.709636
 H        -1.878158         3.822961         1.037804
 H         1.483950         3.621454         3.374954
 H         0.619862         2.195295         3.304158
 H         1.761877         3.699290         0.984639
 H         1.964935         2.012634         1.155822
 H        -0.046125         2.917451        -0.460289
