19
Iteration:  3209charge 0 multiplicity 1
 O         0.142435         0.034930         0.898627
 C        -0.668428         1.182167         0.743892
 C        -2.034828         1.239320         0.311765
 C        -1.743846         1.777984         1.765778
 C        -1.153953         3.155043         1.582502
 O        -0.577013         3.807641         2.695653
 C         0.837587         3.392706         2.787817
 C         1.212259         2.839865         1.413162
 C        -0.031446         2.625490         0.647998
 H         1.059996         0.218418         1.067973
 H        -2.327493         1.926190        -0.564030
 H        -2.688052         0.433915         0.314382
 H        -2.401660         1.465086         2.643256
 H        -1.706883         3.913894         1.128587
 H         1.479655         4.285908         3.169542
 H         1.072280         2.592076         3.606696
 H         1.851954         3.578918         0.895276
 H         1.953730         2.028374         1.352336
 H        -0.103067         2.982776        -0.349501
