19
Iteration:  3660
 O         0.141719         0.029533         0.916818
 C        -0.625028         1.233591         0.735975
 C        -2.086795         1.168371         0.438532
 C        -1.668323         1.827382         1.745014
 C        -1.168849         3.253182         1.437094
 O        -0.504416         3.782755         2.680184
 C         0.730852         3.081045         2.833742
 C         1.249373         3.033665         1.358095
 C        -0.028036         2.721005         0.628610
 H         0.387654        -0.125139         1.823670
 H        -2.515862         1.733179        -0.382745
 H        -2.499349         0.227327         0.567338
 H        -1.917358         1.609021         2.761938
 H        -1.863226         3.955627         0.906957
 H         1.298318         3.751160         3.515804
 H         0.554601         2.065648         3.158772
 H         1.706651         3.981976         0.958407
 H         2.125033         2.272119         1.165348
 H        -0.058362         3.176185        -0.350328
