19
Iteration:   822charge 0 multiplicity 1
 O         0.148617         0.109642         1.078803
 C        -0.646898         1.189799         0.826727
 C        -2.051861         1.133541         0.328816
 C        -1.705097         1.858933         1.745376
 C        -1.166199         3.254179         1.544793
 O        -0.410089         3.818738         2.627416
 C         0.799110         3.213251         2.843669
 C         1.217558         2.903206         1.323289
 C        -0.106221         2.672182         0.535294
 H        -0.447232        -0.625260         0.955788
 H        -2.326197         1.764183        -0.516030
 H        -2.594656         0.288901         0.365907
 H        -2.124175         1.077517         2.617485
 H        -1.774729         4.049847         1.084375
 H         1.529656         4.009713         3.180448
 H         0.771109         2.326601         3.454561
 H         1.514010         3.846595         0.969597
 H         2.025011         2.138015         1.173210
 H        -0.213142         3.038204        -0.547099
