19
Iteration:  3855charge 0 multiplicity 1
 O         0.184523         0.114793         0.906181
 C        -0.631321         1.210017         0.798125
 C        -2.088533         1.147448         0.428264
 C        -1.800153         1.846914         1.695241
 C        -1.197474         3.307070         1.456098
 O        -0.483074         3.733856         2.698541
 C         0.763193         3.121658         2.803788
 C         1.259748         2.953827         1.376879
 C        -0.101239         2.675870         0.627151
 H         1.043119         0.480196         1.256164
 H        -2.534543         1.701537        -0.534427
 H        -2.465790         0.187508         0.785377
 H        -1.907829         1.509538         2.667094
 H        -1.720633         4.211316         1.092298
 H         1.451064         3.734847         3.454336
 H         0.888761         2.107250         3.364607
 H         1.767846         3.885770         1.130377
 H         1.964220         2.028450         1.231953
 H         0.084626         2.884126        -0.546250
