19
Iteration:  1465
 O         0.274617         0.194624         0.889128
 C        -0.693432         1.243961         0.764549
 C        -2.108285         1.082196         0.441631
 C        -1.720011         1.765200         1.818374
 C        -1.133675         3.309205         1.470846
 O        -0.466737         3.911974         2.571450
 C         0.756746         3.216232         2.867680
 C         1.178757         2.813824         1.453294
 C        -0.054828         2.620545         0.551304
 H        -0.127824        -0.717066         1.125492
 H        -2.572725         1.771406        -0.252735
 H        -2.368133         0.118898         0.539246
 H        -2.013753         1.503457         2.891784
 H        -1.979032         4.002980         1.127663
 H         1.408431         3.808194         3.399991
 H         0.608033         2.146499         3.399564
 H         1.749487         3.625707         0.977363
 H         1.947969         1.928944         1.341785
 H        -0.021846         2.968935        -0.530905
