19
Iteration:   697charge 0 multiplicity 1
 O         0.263291         0.105972         1.059431
 C        -0.682139         1.191627         0.883885
 C        -2.095621         1.238557         0.420198
 C        -1.626586         1.845035         1.826311
 C        -1.213713         3.283938         1.502179
 O        -0.507563         3.908917         2.585561
 C         0.714805         3.087594         2.744428
 C         1.280656         2.843403         1.347284
 C        -0.076802         2.595225         0.545329
 H         0.290653        -0.175942         0.113364
 H        -2.432019         1.846242        -0.518815
 H        -2.807741         0.415126         0.614518
 H        -2.087293         1.663426         2.721393
 H        -1.938012         3.913030         1.016181
 H         1.336419         3.606023         3.495740
 H         0.495574         2.124498         3.260651
 H         1.712478         3.730380         0.735541
 H         2.028325         2.038778         1.404227
 H        -0.037555         3.044412        -0.582261
