19
Iteration:  4337charge 0 multiplicity 1
 O         0.066798         0.052462         0.753306
 C        -0.615241         1.211213         0.937796
 C        -2.026269         1.187511         0.354583
 C        -1.724401         1.770240         1.763577
 C        -1.204583         3.235776         1.557172
 O        -0.588048         3.810126         2.670923
 C         0.758839         3.238644         2.819794
 C         1.296050         2.984652         1.365663
 C         0.069815         2.623855         0.662340
 H         0.819000         0.228750         1.330971
 H        -2.371632         1.769471        -0.488619
 H        -2.453051         0.197069         0.393862
 H        -2.315187         1.391007         2.661994
 H        -1.915078         3.850107         1.016751
 H         1.298290         3.957526         3.332899
 H         0.800139         2.338106         3.480591
 H         1.769323         3.882191         0.935012
 H         2.128496         2.138379         1.261074
 H         0.175032         2.886696        -0.439419
