19
Iteration:  3407charge 0 multiplicity 1
 O         0.103144        -0.097966         0.893545
 C        -0.588716         1.162535         0.795453
 C        -1.980856         1.310904         0.349356
 C        -1.731192         1.734678         1.777774
 C        -1.106924         3.189862         1.549594
 O        -0.517718         3.863268         2.706424
 C         0.781570         3.209422         2.833609
 C         1.194287         3.038191         1.297043
 C        -0.058739         2.691847         0.595352
 H         0.336059        -0.215117         1.873925
 H        -2.125992         2.106251        -0.393521
 H        -2.442493         0.346940         0.233760
 H        -2.305307         1.481217         2.594327
 H        -1.999449         3.909818         1.161004
 H         1.409308         3.979163         3.401924
 H         0.560887         2.198823         3.309361
 H         1.590131         4.044717         0.988841
 H         1.831459         2.229322         1.056603
 H        -0.078973         3.083032        -0.399830
