19
Iteration:  4776
 O         0.217633         0.132016         0.840676
 C        -0.626943         1.242422         0.877918
 C        -2.022748         1.186964         0.442732
 C        -1.798405         1.801366         1.730488
 C        -1.141772         3.310273         1.503154
 O        -0.536162         3.779236         2.641994
 C         0.658999         3.104568         2.830840
 C         1.287638         2.887043         1.365350
 C        -0.015731         2.718729         0.561209
 H         0.438214        -0.211460         1.684281
 H        -2.504100         1.685050        -0.447690
 H        -2.420126         0.123676         0.528315
 H        -2.198821         1.288329         2.692715
 H        -1.706433         4.154970         1.026911
 H         1.286582         3.773361         3.398679
 H         0.664849         2.175723         3.428861
 H         1.752344         3.789922         1.166554
 H         1.850135         1.956397         1.361534
 H         0.095006         3.137160        -0.504436
