19
Iteration:   541
 O         0.098848         0.091624         1.070203
 C        -0.634342         1.283914         0.834751
 C        -2.083012         1.200626         0.473457
 C        -1.660159         1.868167         1.727534
 C        -1.171693         3.201218         1.444031
 O        -0.599257         3.742655         2.635882
 C         0.825939         3.243444         2.760210
 C         1.281199         2.881061         1.382645
 C         0.049816         2.623919         0.566405
 H         0.118705        -0.251356         0.196013
 H        -2.536017         1.935721        -0.246808
 H        -2.558330         0.130726         0.502449
 H        -1.922316         1.493452         2.744892
 H        -1.971753         3.832064         1.023086
 H         1.329015         4.106783         3.136903
 H         0.753483         2.374673         3.436044
 H         1.658156         3.819765         0.848149
 H         2.017945         2.073732         1.198768
 H         0.077679         2.971838        -0.588502
