19
Iteration:   715
 O         0.118024         0.097841         1.124986
 C        -0.608574         1.221343         0.807917
 C        -2.052041         1.266553         0.438828
 C        -1.669894         1.787107         1.757029
 C        -1.123377         3.199437         1.523112
 O        -0.472630         3.875946         2.598538
 C         0.726151         3.160203         2.779019
 C         1.154873         2.894076         1.294863
 C        -0.064827         2.622816         0.532093
 H         0.585851        -0.350894         0.396024
 H        -2.403115         2.070476        -0.295190
 H        -2.518815         0.359411         0.285675
 H        -2.056432         1.124888         2.651310
 H        -1.900304         3.985327         1.287924
 H         1.419729         3.857020         3.213405
 H         0.791185         2.329282         3.523956
 H         1.714922         3.777950         0.878183
 H         1.865707         2.086094         1.186039
 H         0.078109         2.830517        -0.483798
