19
Iteration:  1799
 O         0.191366         0.093302         1.029301
 C        -0.646797         1.213292         0.821342
 C        -2.112508         1.213444         0.450614
 C        -1.683052         1.812238         1.756777
 C        -1.101952         3.233264         1.455543
 O        -0.575104         3.802318         2.641419
 C         0.720641         3.127490         2.735091
 C         1.255445         3.001502         1.384808
 C         0.010245         2.619206         0.579242
 H         0.408009        -0.332051         0.216834
 H        -2.498974         1.990385        -0.209512
 H        -2.688721         0.265158         0.600779
 H        -2.090935         1.489979         2.759453
 H        -1.824574         3.882594         0.975497
 H         1.342082         3.786299         3.396888
 H         0.688437         2.129388         3.182012
 H         1.741624         4.014681         1.036094
 H         1.928567         2.173005         1.330489
 H         0.083880         3.090372        -0.409278
