19
Iteration:   978charge 0 multiplicity 1
 O        -0.053835        -0.050525         1.022134
 C        -0.685846         1.151319         0.756080
 C        -2.051028         1.198063         0.331565
 C        -1.777791         1.745015         1.729357
 C        -1.087083         3.184516         1.550430
 O        -0.501557         3.753231         2.739818
 C         0.899388         3.490457         2.764731
 C         1.300723         3.004367         1.356807
 C         0.008300         2.626415         0.635515
 H         0.686737        -0.184647         0.316311
 H        -2.345604         1.786052        -0.465284
 H        -2.567770         0.139709         0.382033
 H        -2.235034         1.593546         2.639023
 H        -1.923605         3.807594         1.171581
 H         1.368577         4.453300         2.953817
 H         1.218572         2.750459         3.457018
 H         1.599750         3.899837         0.811862
 H         1.934730         2.199112         1.327627
 H         0.115883         2.965520        -0.460631
