19
Iteration:   355charge 0 multiplicity 1
 O         0.158051         0.048375         0.936990
 C        -0.671617         1.194642         0.752905
 C        -2.148540         1.111718         0.542166
 C        -1.742736         1.823158         1.738478
 C        -1.085119         3.288767         1.473316
 O        -0.608759         3.924682         2.608540
 C         0.785512         3.215147         2.814120
 C         1.361200         2.943147         1.475793
 C         0.032306         2.690665         0.546973
 H        -0.115741        -0.802700         0.715585
 H        -2.779075         1.475357        -0.336459
 H        -2.440729         0.035737         0.730343
 H        -2.005979         1.583731         2.661515
 H        -1.819454         3.852939         0.890576
 H         1.437631         3.808298         3.339027
 H         0.622947         2.153361         3.228598
 H         2.150586         3.659910         0.947978
 H         1.944548         1.975807         1.286733
 H         0.097387         2.960408        -0.507987
