19
Iteration:  3596
 O         0.128868         0.030798         0.919147
 C        -0.604127         1.197862         0.854900
 C        -2.075839         1.232062         0.285720
 C        -1.796301         1.841851         1.723381
 C        -1.234350         3.164811         1.578005
 O        -0.504382         3.771913         2.770551
 C         0.809035         3.305983         2.801108
 C         1.292335         2.946819         1.338724
 C        -0.046015         2.588924         0.536403
 H         0.961126         0.308761         1.409348
 H        -2.282414         1.883911        -0.556178
 H        -2.579036         0.272494         0.326331
 H        -2.290425         1.340270         2.570200
 H        -1.744059         4.088363         1.259550
 H         1.385978         4.103055         3.321778
 H         0.977352         2.379007         3.412294
 H         1.714259         3.807252         0.817956
 H         1.912550         2.154808         1.227653
 H         0.062761         2.937014        -0.434256
