19
Iteration:  3675charge 0 multiplicity 1
 O         0.150334         0.052218         0.875485
 C        -0.589330         1.274681         0.802963
 C        -2.048064         1.211389         0.506108
 C        -1.702191         1.874109         1.729256
 C        -1.148378         3.247751         1.559146
 O        -0.557760         3.784960         2.630715
 C         0.683982         3.074430         2.830256
 C         1.278560         2.990085         1.385575
 C        -0.020118         2.636457         0.464744
 H         0.736048         0.018616         1.727190
 H        -2.471471         1.804135        -0.336509
 H        -2.550011         0.208019         0.618043
 H        -2.117039         1.440517         2.654818
 H        -1.854543         4.019070         1.221733
 H         1.326880         3.644051         3.471653
 H         0.520599         2.089154         3.307064
 H         1.582318         3.996453         1.135343
 H         2.014925         2.319186         1.132607
 H         0.129481         2.824103        -0.568813
