19
Iteration:  2333charge 0 multiplicity 1
 O         0.171946         0.054420         0.869261
 C        -0.621242         1.201289         0.818811
 C        -2.102780         1.226641         0.391215
 C        -1.698281         1.722190         1.787297
 C        -1.184856         3.150937         1.575807
 O        -0.529188         3.935041         2.667321
 C         0.755542         3.421893         2.739647
 C         1.254139         2.808099         1.433760
 C        -0.040428         2.521860         0.641780
 H         0.819269        -0.024643         0.083578
 H        -2.407763         2.142333        -0.263210
 H        -2.727542         0.316093         0.344306
 H        -2.233826         1.321284         2.640501
 H        -1.731573         3.914747         1.051472
 H         1.461564         4.211369         3.000252
 H         0.735144         2.517701         3.503996
 H         1.759814         3.725070         0.981415
 H         1.835522         1.919012         1.599764
 H         0.110632         2.953536        -0.375180
