19
Iteration:  4457
 O         0.097398         0.093442         0.948175
 C        -0.603535         1.292383         0.790148
 C        -2.113754         1.112302         0.377427
 C        -1.748302         1.833331         1.689942
 C        -1.202041         3.219477         1.450427
 O        -0.537883         3.728199         2.705987
 C         0.750843         3.144473         2.860335
 C         1.315929         3.003345         1.362633
 C         0.023187         2.703505         0.587545
 H         0.978109         0.276561         1.346110
 H        -2.552214         1.533686        -0.414995
 H        -2.534363         0.149659         0.679382
 H        -1.970367         1.460878         2.628267
 H        -1.928230         3.981293         1.195829
 H         1.426041         3.668883         3.428197
 H         0.754966         2.092946         3.325778
 H         1.600185         4.011181         0.946737
 H         2.314080         2.382997         1.247936
 H         0.136650         3.052875        -0.467081
