19
Iteration:  2941
 O         0.144641         0.186568         0.873737
 C        -0.625284         1.227515         0.804820
 C        -2.147317         1.015941         0.386670
 C        -1.727616         1.781379         1.732748
 C        -1.193855         3.273652         1.559252
 O        -0.517826         3.939898         2.625990
 C         0.798441         3.094508         2.819424
 C         1.275466         2.849705         1.426395
 C        -0.001327         2.659308         0.582921
 H         0.932717         0.390893         1.342287
 H        -2.536248         1.878496        -0.383389
 H        -2.624307         0.108583         0.577408
 H        -1.987797         1.444961         2.699676
 H        -1.843617         4.029900         1.187635
 H         1.355882         3.921667         3.323489
 H         0.484694         2.227190         3.460042
 H         1.784144         3.769002         0.964373
 H         1.909531         1.975824         1.413952
 H         0.203749         2.873392        -0.526924
