19
Iteration:  4402
 O         0.189512         0.113699         0.883520
 C        -0.629668         1.288450         0.778733
 C        -2.000270         1.196446         0.362836
 C        -1.780322         1.751015         1.793775
 C        -1.188855         3.218895         1.550256
 O        -0.511856         3.828115         2.641322
 C         0.709933         3.138584         2.800480
 C         1.227489         2.984585         1.316106
 C        -0.015046         2.624759         0.669466
 H         0.565204        -0.077345         1.716581
 H        -2.316742         1.859215        -0.345095
 H        -2.363928         0.208168         0.203297
 H        -2.259085         1.395430         2.677675
 H        -1.830644         4.044837         1.233728
 H         1.379436         3.687990         3.372447
 H         0.608607         2.040474         3.359011
 H         1.816586         3.851706         0.876661
 H         1.896773         2.013159         1.463694
 H         0.033844         2.943881        -0.414568
