19
Iteration:   119charge 0 multiplicity 1
 O         0.262149         0.131588         0.970498
 C        -0.619095         1.236309         0.832286
 C        -2.027440         1.111475         0.454443
 C        -1.746106         1.855605         1.772538
 C        -1.201554         3.253938         1.527305
 O        -0.477883         4.000513         2.572684
 C         0.684492         3.104075         2.776272
 C         1.282302         2.817728         1.386518
 C        -0.060808         2.673658         0.550679
 H        -0.259289        -0.722435         0.815007
 H        -2.425529         1.577284        -0.443353
 H        -2.512229         0.220338         0.657829
 H        -2.262414         1.469919         2.581830
 H        -1.974168         3.902150         1.184213
 H         1.389704         3.640926         3.487268
 H         0.273407         2.244613         3.292102
 H         1.890357         3.596081         1.024103
 H         1.828862         1.903138         1.443740
 H         0.025770         2.901743        -0.528710
