19
Iteration:   702charge 0 multiplicity 1
 O         0.238672         0.087894         1.094436
 C        -0.655854         1.219653         0.857407
 C        -2.095875         1.273202         0.380814
 C        -1.628520         1.841965         1.812250
 C        -1.203646         3.259857         1.547682
 O        -0.509035         3.885293         2.587500
 C         0.746323         3.139991         2.782833
 C         1.241747         2.824476         1.325694
 C        -0.076186         2.576653         0.482417
 H         0.393646        -0.215689         0.153208
 H        -2.317062         1.893516        -0.426108
 H        -2.738087         0.383496         0.518976
 H        -1.943362         1.615825         2.930932
 H        -1.959835         3.887723         1.009981
 H         1.456097         3.741610         3.418905
 H         0.346488         2.216355         3.243646
 H         1.602802         3.773539         1.024352
 H         2.013633         2.024266         1.235971
 H        -0.205734         2.946486        -0.476294
