19
Iteration:  3353charge 0 multiplicity 1
 O         0.170019         0.114527         0.934051
 C        -0.629157         1.206800         0.802253
 C        -2.096541         1.093407         0.415789
 C        -1.775531         1.880462         1.653866
 C        -1.187032         3.357979         1.473562
 O        -0.502465         3.720340         2.705038
 C         0.811154         3.122137         2.831012
 C         1.245748         2.952299         1.434002
 C        -0.076652         2.646510         0.522870
 H         1.067524         0.444951         1.238728
 H        -2.466732         1.569066        -0.504558
 H        -2.687384         0.182738         0.656629
 H        -2.052768         1.641062         2.658142
 H        -1.974935         4.120388         1.258674
 H         1.462540         3.914293         3.372430
 H         0.718952         2.181425         3.303318
 H         1.881428         3.860452         1.171379
 H         1.989020         2.178231         1.332523
 H         0.125378         2.894951        -0.509344
