19
Iteration:  1470charge 0 multiplicity 1
 O         0.273016         0.227318         0.880284
 C        -0.728296         1.253413         0.794748
 C        -2.095880         1.089330         0.451774
 C        -1.689326         1.789458         1.836162
 C        -1.113586         3.308163         1.462210
 O        -0.522386         3.860245         2.594974
 C         0.755305         3.199610         2.823135
 C         1.223391         2.797219         1.444191
 C        -0.058074         2.590799         0.530670
 H        -0.096354        -0.584306         1.133077
 H        -2.426866         1.770478        -0.372109
 H        -2.590206         0.009569         0.515537
 H        -1.909499         1.611068         2.851376
 H        -1.697788         4.097715         1.030358
 H         1.402703         3.967659         3.444993
 H         0.667794         2.291889         3.489523
 H         1.667334         3.743365         1.063532
 H         1.777181         1.923818         1.430517
 H        -0.068377         2.904976        -0.505163
