19
Iteration:   704
 O         0.224602         0.085870         1.103976
 C        -0.644333         1.227987         0.848768
 C        -2.095584         1.270607         0.385243
 C        -1.633741         1.842589         1.806280
 C        -1.191466         3.246321         1.556458
 O        -0.507624         3.879989         2.587776
 C         0.752774         3.156037         2.794979
 C         1.222951         2.817347         1.317948
 C        -0.073238         2.573063         0.476573
 H         0.445954        -0.259637         0.158579
 H        -2.312560         1.990939        -0.474687
 H        -2.671997         0.402846         0.470194
 H        -1.916782         1.559329         2.939478
 H        -1.962908         3.905167         1.042448
 H         1.449050         3.752352         3.350165
 H         0.348551         2.250343         3.252541
 H         1.620393         3.841385         1.090833
 H         1.970412         2.049126         1.182115
 H        -0.232268         2.913609        -0.499974
