19
Iteration:  3857charge 0 multiplicity 1
 O         0.193003         0.114642         0.905234
 C        -0.628126         1.206500         0.804100
 C        -2.115207         1.140729         0.417720
 C        -1.798697         1.840086         1.683298
 C        -1.183696         3.311536         1.465581
 O        -0.480242         3.735372         2.687708
 C         0.757715         3.110567         2.817635
 C         1.266653         2.954885         1.370823
 C        -0.091805         2.688844         0.634657
 H         0.962586         0.491264         1.265236
 H        -2.504417         1.607130        -0.440675
 H        -2.529452         0.098644         0.708313
 H        -1.892796         1.645133         2.751795
 H        -1.658614         4.215849         1.139247
 H         1.401723         3.722702         3.404466
 H         0.837214         2.120707         3.421505
 H         1.733467         3.911682         1.080872
 H         1.999675         2.071128         1.229749
 H         0.010764         2.939709        -0.570532
