19
Iteration:  1819
 O         0.169490         0.072686         1.058542
 C        -0.587292         1.241574         0.828188
 C        -2.081481         1.203464         0.379870
 C        -1.659630         1.787538         1.736803
 C        -1.224387         3.230517         1.576060
 O        -0.435021         3.856826         2.558419
 C         0.695583         3.108904         2.899621
 C         1.260282         2.997209         1.311681
 C        -0.069634         2.646814         0.522510
 H        -0.122117        -0.575472         0.350728
 H        -2.263287         1.856693        -0.433070
 H        -2.444496         0.281826         0.479588
 H        -2.123892         1.369385         2.664460
 H        -1.992885         3.889903         1.173039
 H         1.340151         3.629608         3.685603
 H         0.609210         2.094412         3.267163
 H         1.416583         4.099827         1.259239
 H         2.115452         2.505759         1.023228
 H        -0.027797         2.852518        -0.587183
