19
Iteration:   100
 O         0.173801         0.128258         0.973138
 C        -0.630930         1.226036         0.856168
 C        -2.058150         1.171133         0.401748
 C        -1.634381         1.777148         1.808703
 C        -1.121921         3.273742         1.432149
 O        -0.499447         3.896721         2.559056
 C         0.723577         3.247825         2.855572
 C         1.168388         2.823419         1.414980
 C        -0.066199         2.558343         0.600369
 H        -0.192345        -0.492793         0.308408
 H        -2.403347         1.890210        -0.368321
 H        -2.435846         0.185033         0.386805
 H        -1.843980         1.459506         2.806715
 H        -1.753064         3.954102         0.889842
 H         1.274427         4.070471         3.345400
 H         0.532105         2.409742         3.562667
 H         1.747171         3.636095         1.005943
 H         1.963599         2.111228         1.274066
 H         0.013046         2.914356        -0.353009
