19
Iteration:    39
 O        -0.023696        -0.086118         0.954431
 C        -0.595329         1.209382         0.826643
 C        -2.008735         1.303297         0.362207
 C        -1.692693         1.780551         1.760334
 C        -1.199756         3.132939         1.646526
 O        -0.485220         3.876153         2.569457
 C         0.751247         3.422537         2.823737
 C         1.276028         2.950670         1.397242
 C         0.042374         2.508353         0.577526
 H         0.785934        -0.089053         0.312270
 H        -2.451566         1.878811        -0.494648
 H        -2.428544         0.186497         0.500542
 H        -2.381030         1.234717         2.548397
 H        -1.951911         3.894993         1.223940
 H         1.274762         4.391821         3.182811
 H         0.820737         2.722682         3.770205
 H         1.441977         3.995537         0.883826
 H         2.194731         2.260637         1.458101
 H         0.208938         2.648964        -0.687352
