19
Iteration:  4087charge 0 multiplicity 1
 O         0.072322         0.113822         0.839115
 C        -0.585415         1.239205         0.778006
 C        -2.081353         1.149974         0.421999
 C        -1.714953         1.783193         1.717963
 C        -1.128838         3.226364         1.554696
 O        -0.503610         3.792538         2.643403
 C         0.729501         3.167555         2.806613
 C         1.294702         2.994855         1.422024
 C        -0.064243         2.624338         0.590206
 H         0.844836         0.490950         1.336064
 H        -2.472022         1.762453        -0.433953
 H        -2.440093         0.134914         0.637104
 H        -2.113042         1.423821         2.785441
 H        -1.885470         3.931594         1.268487
 H         1.196263         3.793271         3.450352
 H         0.601607         2.251232         3.373071
 H         1.855223         3.917477         1.077315
 H         2.099617         2.225569         1.517232
 H         0.069343         2.804538        -0.432454
