19
Iteration:  3961charge 0 multiplicity 1
 O         0.052486         0.051145         0.804651
 C        -0.592448         1.203064         0.851926
 C        -2.078394         1.158379         0.399388
 C        -1.786926         1.848341         1.689699
 C        -1.201560         3.118502         1.532493
 O        -0.505779         3.722015         2.695190
 C         0.836488         3.324205         2.829834
 C         1.310444         3.042893         1.391653
 C        -0.010226         2.609824         0.634105
 H         0.829787         0.090316         1.462226
 H        -2.473365         1.770308        -0.486342
 H        -2.507121         0.197318         0.370328
 H        -2.407703         1.566857         2.545934
 H        -1.799042         4.034528         1.262816
 H         1.320105         4.260066         3.360003
 H         1.024850         2.449473         3.454376
 H         1.826265         3.876420         0.892079
 H         1.987817         2.210446         1.366511
 H        -0.029427         2.967759        -0.372172
