19
Iteration:   341
 O         0.214506         0.040037         0.924129
 C        -0.620635         1.224496         0.793640
 C        -2.139430         1.066613         0.519652
 C        -1.659244         1.904199         1.748867
 C        -1.157946         3.280323         1.432728
 O        -0.527493         3.911555         2.609543
 C         0.703339         3.221671         2.818364
 C         1.292312         2.848587         1.369197
 C         0.011468         2.629290         0.608169
 H        -0.365749        -0.555241         0.326724
 H        -2.676745         1.631803        -0.318960
 H        -2.556725         0.203354         0.902475
 H        -2.127640         1.646112         2.734190
 H        -1.743983         4.097137         1.010855
 H         1.248588         3.912308         3.527141
 H         0.469595         2.335010         3.449248
 H         1.734952         3.770675         1.019987
 H         1.967280         1.987418         1.557442
 H         0.161644         3.112043        -0.431826
