19
Iteration:  1823charge 0 multiplicity 1
 O         0.154045         0.068384         1.053783
 C        -0.599257         1.266377         0.830854
 C        -2.015493         1.197868         0.367936
 C        -1.662485         1.771548         1.727078
 C        -1.214872         3.257261         1.580922
 O        -0.423073         3.877170         2.581154
 C         0.702114         3.094329         2.859934
 C         1.222564         3.011923         1.326343
 C        -0.066370         2.608252         0.531453
 H        -0.136171        -0.630773         0.450609
 H        -2.391769         1.961128        -0.381574
 H        -2.454898         0.040733         0.496582
 H        -2.186368         1.348772         2.615769
 H        -2.022025         3.926038         1.274677
 H         1.256444         3.703529         3.550978
 H         0.573010         2.055957         3.198299
 H         1.397077         4.153226         1.243034
 H         2.131094         2.351849         1.008689
 H         0.005668         2.940170        -0.499577
