19
Iteration:  2223
 O         0.192770         0.054258         1.025885
 C        -0.610234         1.163312         0.842171
 C        -2.012426         1.135497         0.335057
 C        -1.677498         1.852904         1.769563
 C        -1.175173         3.264139         1.588007
 O        -0.455368         3.860560         2.639549
 C         0.733270         3.140373         2.728149
 C         1.214401         2.992871         1.363534
 C        -0.123975         2.708848         0.614173
 H        -0.163484        -0.694404         0.591332
 H        -2.349279         1.804754        -0.539650
 H        -2.512173         0.221604         0.305243
 H        -2.152294         1.433487         2.707302
 H        -1.910499         3.908483         1.112084
 H         1.338680         3.754331         3.297085
 H         0.433111         2.050315         3.068015
 H         1.640031         4.036739         1.026955
 H         1.882745         2.195343         1.133446
 H         0.075710         3.027477        -0.420677
