19
Iteration:  4709charge 0 multiplicity 1
 O         0.081136        -0.056421         0.947103
 C        -0.585229         1.254959         0.871136
 C        -1.982178         1.287414         0.312990
 C        -1.784876         1.762415         1.715642
 C        -1.163859         3.211375         1.574954
 O        -0.537501         3.771188         2.705746
 C         0.757039         3.237639         2.794103
 C         1.272607         3.036666         1.352448
 C        -0.030434         2.651623         0.560927
 H         1.038213         0.236588         1.177188
 H        -2.238340         2.035992        -0.490117
 H        -2.508937         0.367351         0.271810
 H        -2.378657         1.158549         2.504098
 H        -1.932813         3.912878         1.238244
 H         1.391130         3.778368         3.391884
 H         0.661329         2.258838         3.279401
 H         1.737363         3.882706         1.013956
 H         1.915913         2.247449         1.315819
 H         0.067923         2.840575        -0.524832
