19
Iteration:   274charge 0 multiplicity 1
 O         0.040799         0.058995         1.059727
 C        -0.612100         1.199658         0.792973
 C        -2.104412         1.141584         0.392338
 C        -1.623304         1.752793         1.726201
 C        -1.148833         3.251573         1.482259
 O        -0.522640         3.887571         2.623222
 C         0.795683         3.278069         2.845909
 C         1.242867         2.877418         1.380183
 C        -0.005973         2.653973         0.557030
 H         0.555298        -0.320607         0.374626
 H        -2.568611         1.801373        -0.310053
 H        -2.514735         0.089890         0.514388
 H        -2.046425         1.567534         2.849251
 H        -1.757489         3.984561         0.923036
 H         1.626505         4.020027         3.225620
 H         0.763412         2.517146         3.633774
 H         1.496518         3.807637         0.956365
 H         1.912257         2.050557         1.159955
 H        -0.034416         2.941926        -0.564058
