19
Iteration:  2599
 O         0.253598         0.133974         0.824494
 C        -0.626145         1.213120         0.850417
 C        -2.144373         1.118569         0.552257
 C        -1.701255         1.841601         1.763060
 C        -1.106297         3.205583         1.510934
 O        -0.499983         3.884126         2.584388
 C         0.697191         3.246455         2.883608
 C         1.251291         2.866149         1.404160
 C        -0.054658         2.631228         0.561524
 H        -0.092241        -0.482903         0.090075
 H        -2.585617         1.555644        -0.477611
 H        -2.548803         0.171019         0.782015
 H        -2.125358         1.752428         2.795340
 H        -1.740708         3.989603         1.109652
 H         1.292297         3.882288         3.398617
 H         0.581295         2.340473         3.410925
 H         1.795271         3.649467         0.883006
 H         1.898904         1.903287         1.447250
 H        -0.061272         2.948903        -0.485524
