19
Iteration:  3142charge 0 multiplicity 1
 O         0.157800         0.038594         0.755508
 C        -0.637252         1.214881         0.876318
 C        -2.092149         1.152762         0.438920
 C        -1.581711         1.828435         1.835015
 C        -1.150304         3.257974         1.531354
 O        -0.567067         3.967058         2.583785
 C         0.698805         3.073501         2.819383
 C         1.244656         2.929478         1.429958
 C         0.025144         2.631086         0.547529
 H         0.625274        -0.172915         1.618547
 H        -2.501953         1.904846        -0.194074
 H        -2.754286         0.313519         0.514713
 H        -1.994190         1.498542         2.755132
 H        -1.944659         3.755785         1.096070
 H         1.176152         3.639150         3.577286
 H         0.210315         2.259406         3.376662
 H         1.508878         3.888215         1.119654
 H         2.122113         2.316185         1.190278
 H         0.270456         2.917228        -0.430072
