19
Iteration:   323charge 0 multiplicity 1
 O         0.182861         0.126091         0.919643
 C        -0.626914         1.222751         0.890879
 C        -2.002865         1.196601         0.508649
 C        -1.690832         1.877615         1.862969
 C        -1.113627         3.239556         1.442973
 O        -0.533110         3.950057         2.506510
 C         0.726497         3.138837         2.826268
 C         1.184507         2.848700         1.478496
 C        -0.050429         2.552956         0.512869
 H        -0.024834        -0.473845         0.115540
 H        -2.366590         1.812432        -0.367062
 H        -2.401915         0.144933         0.526701
 H        -2.041341         1.441404         2.718839
 H        -1.935918         3.892650         1.098159
 H         1.354138         3.833560         3.302963
 H         0.651766         2.273975         3.559698
 H         1.620608         3.779293         0.920668
 H         1.777815         1.890913         1.358466
 H         0.111003         2.737914        -0.520321
