19
Iteration:  2237
 O         0.202054         0.122072         0.970607
 C        -0.655473         1.233671         0.897790
 C        -2.014510         1.159114         0.360619
 C        -1.800028         1.742880         1.712436
 C        -1.188375         3.221187         1.533600
 O        -0.477385         3.911349         2.664276
 C         0.792862         3.186114         2.812285
 C         1.248807         2.994546         1.309995
 C        -0.027128         2.552526         0.589891
 H        -0.286926        -0.609318         0.494915
 H        -2.200094         1.822339        -0.444628
 H        -2.673076         0.297775         0.495113
 H        -2.242158         1.234509         2.610209
 H        -1.880610         4.076785         1.249445
 H         1.527035         3.738921         3.538646
 H         0.658278         2.186704         3.368635
 H         1.541896         3.938249         0.850208
 H         2.144849         2.330553         1.347843
 H        -0.197361         2.839762        -0.457853
