19
Iteration:  3869
 O         0.200136         0.125997         0.906520
 C        -0.685537         1.282572         0.805036
 C        -2.154302         1.071474         0.419229
 C        -1.753480         1.897479         1.718462
 C        -1.102000         3.262388         1.525058
 O        -0.503466         3.754033         2.675190
 C         0.775114         3.081838         2.842518
 C         1.252805         2.946948         1.353581
 C        -0.014638         2.671975         0.560595
 H         0.995038         0.322448         1.475126
 H        -2.527516         1.590520        -0.348287
 H        -2.556314        -0.017024         0.432415
 H        -2.360545         1.606848         2.656120
 H        -1.799826         3.980401         1.119143
 H         1.359705         3.742946         3.406788
 H         0.535418         2.118826         3.381213
 H         1.602469         3.945145         1.002677
 H         2.134425         2.283860         1.172378
 H        -0.091473         3.231971        -0.494687
