19
Iteration:  3453charge 0 multiplicity 1
 O         0.109692         0.039481         0.819617
 C        -0.590479         1.260295         0.820766
 C        -2.121029         1.180071         0.399547
 C        -1.757249         1.847861         1.726623
 C        -1.131217         3.207942         1.533820
 O        -0.563916         3.754295         2.669103
 C         0.790046         3.262155         2.837978
 C         1.295122         2.928359         1.401300
 C         0.001750         2.645831         0.612127
 H         0.873561         0.094331         1.482764
 H        -2.699338         1.760885        -0.363647
 H        -2.424473         0.124979         0.589478
 H        -2.127104         1.384560         2.664102
 H        -1.761006         3.885059         0.824776
 H         1.325727         4.204671         3.236540
 H         0.864245         2.340969         3.421375
 H         1.884573         3.841959         1.033298
 H         1.932228         2.057266         1.481980
 H        -0.195428         3.076202        -0.374881
