19
Iteration:  3582
 O         0.070444         0.057116         0.898799
 C        -0.701308         1.231644         0.774113
 C        -2.005083         1.182290         0.342498
 C        -1.746979         1.764580         1.697307
 C        -1.128768         3.276682         1.525851
 O        -0.562791         3.735009         2.706636
 C         0.885812         3.274385         2.779856
 C         1.274328         2.948431         1.373577
 C        -0.053988         2.624117         0.703292
 H         0.879802         0.229999         1.339599
 H        -2.438130         1.747169        -0.444962
 H        -2.456314         0.149779         0.454457
 H        -2.279114         1.507292         2.660071
 H        -1.979023         3.855812         1.076479
 H         1.547440         4.093553         3.232876
 H         0.836269         2.439664         3.505044
 H         1.586087         3.940516         0.911932
 H         2.230789         2.324051         1.409073
 H        -0.091432         2.871334        -0.384819
