19
Iteration:  4030
 O         0.139722         0.079356         0.803146
 C        -0.593916         1.269154         0.808616
 C        -2.096971         1.167053         0.419482
 C        -1.696878         1.678093         1.744360
 C        -1.150548         3.201996         1.556152
 O        -0.529791         3.934053         2.652732
 C         0.747196         3.200612         2.841722
 C         1.290641         2.901165         1.382865
 C        -0.043893         2.670203         0.601406
 H         0.575537        -0.007170         1.707028
 H        -2.569533         1.931659        -0.283588
 H        -2.705841         0.151581         0.210776
 H        -1.976469         1.512663         2.736135
 H        -2.024731         3.733709         1.115549
 H         1.400236         3.737597         3.558942
 H         0.435894         2.243350         3.223180
 H         1.704757         3.806221         1.028921
 H         2.068624         2.087032         1.297676
 H         0.119254         2.998308        -0.344928
