19
Iteration:  1423
 O         0.199791         0.051283         0.886327
 C        -0.602488         1.228898         0.884012
 C        -2.052337         1.240666         0.491595
 C        -1.626433         1.797816         1.841599
 C        -1.186378         3.202857         1.457241
 O        -0.529054         3.905732         2.611100
 C         0.725377         3.228015         2.808167
 C         1.201616         2.936515         1.363610
 C        -0.027508         2.565706         0.549448
 H        -0.342916        -0.638487         0.366770
 H        -2.471306         2.049476        -0.196777
 H        -2.372247         0.264863         0.321902
 H        -2.089891         1.482560         2.802503
 H        -1.848899         3.974507         1.082222
 H         1.280701         3.817804         3.501237
 H         0.515773         2.288614         3.501003
 H         1.662626         3.778914         0.885528
 H         1.773689         2.015200         1.390399
 H         0.238378         2.719702        -0.554000
