19
Iteration:    37
 O         0.000303        -0.095141         0.959677
 C        -0.601283         1.205550         0.841433
 C        -2.026171         1.314246         0.360684
 C        -1.695296         1.773739         1.751234
 C        -1.193641         3.134357         1.649250
 O        -0.484653         3.877036         2.569016
 C         0.730229         3.430494         2.827928
 C         1.298850         2.947582         1.392306
 C         0.016961         2.510085         0.577256
 H         0.738174        -0.081573         0.362582
 H        -2.472459         1.947096        -0.509509
 H        -2.365589         0.277815         0.478676
 H        -2.323840         1.277512         2.475233
 H        -1.937336         3.886126         1.238482
 H         1.270686         4.296035         3.163756
 H         0.818645         2.653248         3.696201
 H         1.496663         3.998943         0.849841
 H         2.252509         2.288953         1.439524
 H         0.164822         2.611458        -0.642981
