19
Iteration:  1552charge 0 multiplicity 1
 O         0.098450        -0.004499         1.122718
 C        -0.606173         1.148027         0.901327
 C        -2.039591         1.243651         0.338093
 C        -1.751343         1.748971         1.694438
 C        -1.168788         3.180628         1.519093
 O        -0.491140         3.798582         2.680404
 C         0.808777         3.213815         2.736549
 C         1.247554         3.124123         1.285878
 C        -0.033787         2.664975         0.598351
 H         0.077697        -0.609166         0.339416
 H        -2.111194         1.966176        -0.482236
 H        -2.707770         0.474856         0.211949
 H        -2.036188         1.370326         2.651451
 H        -1.835959         4.072150         1.256911
 H         1.273892         3.853500         3.381544
 H         0.712590         2.283318         3.144214
 H         1.697203         4.052039         0.952048
 H         2.153310         2.363160         1.067993
 H        -0.166366         3.038841        -0.438624
