19
Iteration:  3884charge 0 multiplicity 1
 O         0.114820         0.162462         0.897594
 C        -0.612806         1.251379         0.803427
 C        -1.995924         1.201105         0.429637
 C        -1.727575         1.800964         1.758974
 C        -1.194662         3.221755         1.501964
 O        -0.501219         3.796080         2.709235
 C         0.749920         3.065125         2.773638
 C         1.237253         2.976803         1.361504
 C        -0.038611         2.632688         0.531478
 H         0.613383         0.329222         1.669716
 H        -2.563433         1.556500        -0.522424
 H        -2.427989         0.293189         0.713578
 H        -2.205731         1.375776         2.727129
 H        -1.786171         4.111701         1.158023
 H         1.453777         3.618165         3.486083
 H         0.612762         2.072137         3.170873
 H         1.625718         3.948409         0.993930
 H         2.001447         2.247606         1.256626
 H         0.098954         2.779791        -0.488465
