19
Iteration:  2135
 O         0.109008         0.055485         1.038975
 C        -0.636428         1.243244         0.892015
 C        -1.958408         1.257777         0.351763
 C        -1.686361         1.746448         1.726036
 C        -1.173355         3.195336         1.572530
 O        -0.528096         3.871000         2.677121
 C         0.835222         3.222234         2.756747
 C         1.216579         2.901547         1.267035
 C        -0.140234         2.622648         0.612567
 H         0.871339         0.152843         0.494890
 H        -2.380722         1.845565        -0.452268
 H        -2.406658         0.209255         0.427879
 H        -2.225166         1.328907         2.516435
 H        -1.791033         3.999457         1.104959
 H         1.356031         3.858802         3.449833
 H         0.623489         2.144246         3.271640
 H         1.782368         3.855900         0.852274
 H         1.859410         2.084434         0.999785
 H        -0.217191         2.892264        -0.450140
