19
Iteration:  4817
 O         0.210968         0.012854         0.905410
 C        -0.617973         1.289147         0.762528
 C        -2.105929         1.250416         0.362962
 C        -1.673779         1.770912         1.697781
 C        -1.151866         3.199766         1.540445
 O        -0.500944         3.867965         2.674734
 C         0.682780         3.136705         2.843882
 C         1.239130         2.934188         1.412034
 C        -0.034665         2.672007         0.554561
 H         0.607550         0.144111         1.797585
 H        -2.446146         1.883543        -0.492505
 H        -2.653571         0.340625         0.337146
 H        -2.001065         1.166777         2.667729
 H        -1.899436         3.918138         1.188276
 H         1.348400         3.732419         3.352340
 H         0.433234         2.264385         3.496263
 H         1.818851         3.785000         1.085541
 H         1.878527         2.116095         1.357039
 H        -0.242124         2.983945        -0.362470
