19
Iteration:  2552
 O         0.076795         0.085120         1.077459
 C        -0.651709         1.222201         0.796428
 C        -2.001903         1.209281         0.401300
 C        -1.706016         1.731220         1.803642
 C        -1.165169         3.149772         1.532609
 O        -0.496050         3.880647         2.640945
 C         0.805807         3.176891         2.734876
 C         1.228431         2.972240         1.354055
 C        -0.071071         2.713423         0.498214
 H         0.865862        -0.061515         0.532182
 H        -2.509748         1.859217        -0.345762
 H        -2.518397         0.129566         0.514858
 H        -2.062224         1.217926         2.732209
 H        -1.913263         3.806561         1.187267
 H         1.617714         3.739913         3.274224
 H         0.756989         2.196190         3.264335
 H         1.865584         3.784762         0.981523
 H         1.733487         2.005866         1.198607
 H        -0.139308         3.238936        -0.474796
