19
Iteration:  2099
 O         0.082340         0.061959         1.035364
 C        -0.604027         1.193090         0.796535
 C        -2.148992         1.229928         0.398688
 C        -1.668054         1.753702         1.723998
 C        -1.103301         3.179231         1.459200
 O        -0.562304         3.769277         2.669893
 C         0.789287         3.307683         2.856904
 C         1.305153         3.068106         1.324369
 C         0.007717         2.588709         0.598654
 H         0.155868        -0.383424         0.209186
 H        -2.586178         1.918236        -0.334169
 H        -2.696638         0.279116         0.612622
 H        -1.975113         1.362416         2.722507
 H        -1.849099         3.874634         1.140030
 H         1.454236         3.939080         3.384762
 H         0.865675         2.171953         3.360065
 H         1.585547         4.043032         0.915779
 H         2.071432         2.279700         1.073740
 H        -0.026625         2.835289        -0.454743
