19
Iteration:  1710charge 0 multiplicity 1
 O         0.160275        -0.012728         0.906324
 C        -0.578696         1.200995         0.824834
 C        -2.023219         1.290956         0.460295
 C        -1.719734         1.836270         1.799635
 C        -1.188247         3.175645         1.499888
 O        -0.562736         3.814518         2.587110
 C         0.781305         3.309724         2.811935
 C         1.254244         2.956601         1.384834
 C        -0.005803         2.601434         0.632745
 H        -0.400451        -0.523864         0.363165
 H        -2.549829         1.799945        -0.417716
 H        -2.359767         0.304673         0.435303
 H        -2.057883         1.378188         2.694512
 H        -1.906988         3.941159         1.121093
 H         1.179689         4.167305         3.452873
 H         0.807272         2.407848         3.377304
 H         1.861002         3.906911         0.934917
 H         1.832526         2.075270         1.461813
 H         0.053652         2.720192        -0.479498
