19
Iteration:  1089
 O         0.264630         0.231271         0.996023
 C        -0.615549         1.312560         0.790527
 C        -2.067256         1.114620         0.526813
 C        -1.641415         1.842823         1.777693
 C        -1.140995         3.326310         1.423634
 O        -0.565465         3.849855         2.672042
 C         0.713572         2.968776         2.783679
 C         1.207368         2.849123         1.308452
 C        -0.036141         2.594584         0.480584
 H        -0.257980        -0.482023         1.237771
 H        -2.515467         1.983509        -0.170325
 H        -2.614088         0.234136         0.724445
 H        -2.075258         1.512965         2.814059
 H        -1.843727         4.167843         1.013673
 H         1.195494         3.685869         3.457207
 H         0.372812         1.959655         3.256317
 H         1.679634         3.880568         0.987324
 H         1.987636         2.114398         1.344858
 H         0.111785         3.010196        -0.647200
