19
Iteration:  2645
 O         0.159446         0.023068         0.789246
 C        -0.649279         1.176017         0.797125
 C        -2.114097         1.272774         0.444521
 C        -1.549578         1.742038         1.881301
 C        -1.134509         3.204590         1.513312
 O        -0.548416         3.876667         2.565835
 C         0.700927         3.279056         2.866206
 C         1.277610         2.950773         1.385698
 C        -0.011726         2.612495         0.608901
 H        -0.022590        -0.584334         1.544787
 H        -2.540473         2.134936        -0.235555
 H        -2.827130         0.412933         0.479237
 H        -2.018086         1.131233         2.589782
 H        -1.985039         3.861101         1.033632
 H         1.273058         4.089943         3.431177
 H         0.518715         2.384339         3.332858
 H         1.830152         3.874735         0.967896
 H         1.988122         2.069766         1.485092
 H         0.034319         2.843601        -0.476823
