19
Iteration:  3876
 O         0.166498         0.156604         0.908212
 C        -0.683634         1.287456         0.794558
 C        -2.084985         1.101403         0.422111
 C        -1.755793         1.882055         1.777889
 C        -1.114090         3.218382         1.517388
 O        -0.514091         3.781654         2.701525
 C         0.770436         3.094986         2.807569
 C         1.240418         2.951719         1.355613
 C        -0.020766         2.644364         0.505445
 H         0.831978         0.238551         1.554877
 H        -2.550211         1.775150        -0.461199
 H        -2.395321         0.114759         0.732743
 H        -2.379002         1.387946         2.404993
 H        -1.891124         3.876280         1.059844
 H         1.457485         3.607956         3.556423
 H         0.676668         2.049379         3.213060
 H         1.564370         3.967935         1.159672
 H         2.103843         2.228962         1.164786
 H         0.174616         3.043579        -0.504029
