19
Iteration:   813
 O         0.113760         0.089042         1.108288
 C        -0.647612         1.237263         0.802206
 C        -2.060674         1.197230         0.293892
 C        -1.724276         1.784894         1.723582
 C        -1.189919         3.215909         1.563598
 O        -0.474311         3.795377         2.635030
 C         0.851433         3.256126         2.781398
 C         1.265288         2.946728         1.251524
 C        -0.046551         2.623593         0.645561
 H        -0.352327        -0.739108         0.980125
 H        -2.267593         1.750598        -0.645100
 H        -2.603295         0.316648         0.412590
 H        -2.074149         1.383065         2.801372
 H        -1.802987         4.106112         1.238729
 H         1.419110         4.071590         3.316008
 H         0.859604         2.314324         3.433345
 H         1.728011         3.884586         0.867822
 H         1.882676         2.076198         1.128037
 H        -0.135228         3.011378        -0.356374
