19
Iteration:   934
 O         0.067484         0.047311         0.930719
 C        -0.660978         1.235552         0.842378
 C        -2.039469         1.259551         0.421731
 C        -1.686587         1.780227         1.820563
 C        -1.177990         3.158476         1.575411
 O        -0.521244         3.837072         2.600983
 C         0.821895         3.371201         2.751597
 C         1.270707         2.884756         1.398281
 C        -0.025681         2.525139         0.615782
 H         0.232287        -0.362597        -0.001095
 H        -2.170755         1.962579        -0.337376
 H        -2.475231         0.238484         0.253491
 H        -2.072526         1.449023         2.741760
 H        -1.779471         3.732169         0.855780
 H         1.493893         4.177622         2.998350
 H         0.734163         2.706575         3.526342
 H         1.715593         3.784404         0.992426
 H         1.954383         2.150388         1.573659
 H        -0.144926         2.895452        -0.404946
