19
Iteration:  5000charge 0 multiplicity 1
 O         0.087935         0.020381         0.893530
 C        -0.598620         1.290763         0.808907
 C        -1.988193         1.198863         0.355059
 C        -1.673005         1.818595         1.754596
 C        -1.178576         3.274975         1.557134
 O        -0.549757         3.828732         2.669040
 C         0.663652         3.089423         2.790456
 C         1.222782         2.948650         1.390369
 C         0.026757         2.671023         0.595186
 H         0.963662         0.300619         1.302132
 H        -2.299102         1.741995        -0.511826
 H        -2.432058         0.143273         0.594783
 H        -1.932539         1.304362         2.749072
 H        -1.932353         3.967107         1.216275
 H         1.226212         3.735753         3.521454
 H         0.336913         2.145940         3.317408
 H         1.688218         3.884286         0.979912
 H         2.037486         2.187427         1.125749
 H         0.281862         2.961050        -0.512725
