19
Iteration:  3667
 O         0.136049         0.041902         0.879899
 C        -0.536845         1.204378         0.758351
 C        -2.102481         1.192903         0.480178
 C        -1.695234         1.893709         1.735287
 C        -1.178496         3.230055         1.469928
 O        -0.542725         3.788364         2.634954
 C         0.714450         3.054356         2.866348
 C         1.240115         3.033753         1.281092
 C         0.019318         2.683562         0.626870
 H         0.407903         0.133539         1.852428
 H        -2.367337         1.717979        -0.448938
 H        -2.640630         0.176652         0.638656
 H        -1.849718         1.556716         2.817827
 H        -1.934324         3.995876         1.223630
 H         1.326940         3.627256         3.603111
 H         0.577768         2.054959         3.404221
 H         1.631749         4.040631         1.083081
 H         2.029288         2.192864         1.252971
 H         0.047781         3.169421        -0.486322
