19
Iteration:  4089
 O         0.074099         0.120316         0.852454
 C        -0.594447         1.243182         0.766535
 C        -2.075016         1.142952         0.417862
 C        -1.706108         1.782473         1.700909
 C        -1.144271         3.211791         1.549908
 O        -0.508597         3.797506         2.639974
 C         0.744613         3.172279         2.810582
 C         1.294144         2.970074         1.427552
 C        -0.066489         2.630469         0.621235
 H         0.852027         0.400213         1.293953
 H        -2.456466         1.736615        -0.396498
 H        -2.470021         0.229177         0.573745
 H        -2.094663         1.426882         2.799483
 H        -1.861541         4.001090         1.338067
 H         1.269484         3.827254         3.433162
 H         0.577534         2.251981         3.369439
 H         1.788204         3.993196         1.018521
 H         2.127299         2.240859         1.467462
 H         0.039318         2.831084        -0.512629
