19
Iteration:  3456charge 0 multiplicity 1
 O         0.122288         0.043356         0.824067
 C        -0.610662         1.262116         0.813720
 C        -2.105966         1.188724         0.407254
 C        -1.741158         1.859563         1.703403
 C        -1.155919         3.220134         1.513233
 O        -0.560753         3.744568         2.670437
 C         0.786978         3.261669         2.811546
 C         1.288594         2.912544         1.409340
 C         0.011382         2.635668         0.623617
 H         0.895219         0.008381         1.360604
 H        -2.645201         1.757353        -0.357936
 H        -2.422942         0.148579         0.807030
 H        -2.112749         1.406512         2.737287
 H        -1.790159         3.911237         0.986738
 H         1.230938         4.158050         3.249458
 H         0.879006         2.392424         3.505640
 H         1.766596         3.835199         1.069495
 H         1.958904         1.974961         1.500663
 H        -0.173596         3.176903        -0.358647
