19
Iteration:  2711charge 0 multiplicity 1
 O         0.155410        -0.015409         0.982244
 C        -0.631395         1.268207         0.813628
 C        -2.021388         1.220220         0.364784
 C        -1.884555         1.820863         1.695285
 C        -1.139602         3.245543         1.551290
 O        -0.483581         3.741665         2.707388
 C         0.807405         3.226090         2.833121
 C         1.239328         2.953643         1.310072
 C        -0.052774         2.628461         0.581259
 H         1.038463         0.354606         0.971802
 H        -2.552247         1.756762        -0.470266
 H        -2.404996         0.084640         0.598239
 H        -2.531074         1.516501         2.525198
 H        -1.603571         4.176557         1.071906
 H         1.351167         4.167918         3.209191
 H         0.882334         2.415902         3.551535
 H         1.664037         3.910549         0.783599
 H         1.950190         2.087081         1.219869
 H        -0.097381         3.008535        -0.477079
