19
Iteration:  3398charge 0 multiplicity 1
 O         0.082362        -0.057442         0.887767
 C        -0.556554         1.161050         0.849168
 C        -2.005584         1.250670         0.342892
 C        -1.718071         1.796700         1.774804
 C        -1.221456         3.212724         1.508911
 O        -0.488367         3.837292         2.742618
 C         0.751755         3.214314         2.792798
 C         1.244368         3.035169         1.351577
 C        -0.036280         2.662386         0.559698
 H         0.430199        -0.166722         1.836778
 H        -2.309162         1.997818        -0.454472
 H        -2.620300         0.442533         0.107331
 H        -2.152357         1.419839         2.620591
 H        -2.040654         3.869935         1.082939
 H         1.412885         3.817406         3.552517
 H         0.876342         2.189954         3.117390
 H         1.739646         3.996048         0.926193
 H         2.063556         2.350919         1.214944
 H        -0.149836         3.068262        -0.442154
