19
Iteration:  2801
 O         0.198481         0.181960         0.955141
 C        -0.641651         1.218719         0.808983
 C        -2.115158         1.194039         0.382788
 C        -1.738535         1.812087         1.768112
 C        -1.146480         3.171305         1.468739
 O        -0.494021         3.747593         2.661406
 C         0.774435         3.168113         2.782098
 C         1.233432         2.948052         1.351016
 C        -0.046159         2.643493         0.593212
 H         0.401314         0.031061         1.912867
 H        -2.351508         1.801061        -0.539439
 H        -2.708545         0.309361         0.468084
 H        -2.190874         1.613701         2.735093
 H        -1.873956         3.947359         0.995086
 H         1.379644         3.880772         3.480601
 H         0.800978         2.171999         3.261235
 H         1.728487         3.867923         0.878177
 H         1.892183         2.041810         1.307319
 H         0.067076         3.056232        -0.420620
