19
Iteration:  3528
 O         0.120375         0.030360         0.813817
 C        -0.579225         1.228491         0.859477
 C        -2.051913         1.249301         0.419870
 C        -1.658891         1.752228         1.770422
 C        -1.102797         3.201450         1.523819
 O        -0.497060         3.894840         2.635563
 C         0.657098         3.184665         2.836027
 C         1.215137         2.938309         1.373586
 C        -0.050679         2.662422         0.561022
 H         0.575512        -0.106388         1.623989
 H        -2.384623         1.992230        -0.282577
 H        -2.447498         0.242303         0.525292
 H        -1.863225         1.327428         2.766657
 H        -2.013413         3.738835         1.082001
 H         1.461498         3.645678         3.507118
 H         0.419217         2.225125         3.369397
 H         1.456000         3.994869         1.081480
 H         1.936763         2.176226         1.300969
 H        -0.004389         2.826501        -0.497840
