19
Iteration:  4014charge 0 multiplicity 1
 O         0.120571         0.065811         0.825182
 C        -0.639382         1.229316         0.743366
 C        -2.090212         1.224928         0.361723
 C        -1.688094         1.733598         1.831177
 C        -1.201664         3.185350         1.572415
 O        -0.513122         3.852413         2.596086
 C         0.750251         3.206066         2.788354
 C         1.279849         2.952245         1.425057
 C        -0.017148         2.645009         0.674297
 H         0.648878         0.205359         1.698213
 H        -2.458826         1.849277        -0.407932
 H        -2.364570         0.273694         0.421606
 H        -2.021462         0.917853         2.572095
 H        -1.799547         4.037420         1.187145
 H         1.380157         3.994887         3.299680
 H         0.721584         2.348599         3.536659
 H         1.914534         3.792649         0.980910
 H         1.933320         2.105415         1.420446
 H        -0.147779         3.129235        -0.407698
