19
Iteration:   695charge 0 multiplicity 1
 O         0.265357         0.116245         1.046342
 C        -0.685150         1.183899         0.892108
 C        -2.100340         1.218983         0.441049
 C        -1.628302         1.853893         1.816249
 C        -1.204248         3.283407         1.485524
 O        -0.505277         3.916489         2.584019
 C         0.702190         3.072914         2.734271
 C         1.289334         2.853351         1.349995
 C        -0.074409         2.606788         0.565815
 H         0.285938        -0.208125         0.069561
 H        -2.457587         1.840729        -0.521521
 H        -2.780718         0.446427         0.635515
 H        -2.208121         1.605200         2.756521
 H        -1.958091         3.968340         1.024480
 H         1.275467         3.553750         3.480653
 H         0.555311         2.100547         3.246600
 H         1.762571         3.700190         0.692531
 H         2.000506         2.052599         1.443799
 H         0.034640         3.007759        -0.518830
