19
Iteration:  4466
 O         0.060111         0.127579         0.936698
 C        -0.596473         1.259493         0.764938
 C        -2.054361         1.080918         0.431897
 C        -1.765106         1.819422         1.708416
 C        -1.164603         3.200113         1.477780
 O        -0.511515         3.702434         2.685726
 C         0.754504         3.137419         2.869508
 C         1.307921         3.056120         1.405680
 C         0.003448         2.691043         0.554953
 H         0.921958         0.360235         1.371762
 H        -2.467876         1.748017        -0.453759
 H        -2.501821         0.137847         0.372958
 H        -2.157245         1.629716         2.670158
 H        -1.774963         4.068346         1.042422
 H         1.286298         3.939198         3.460813
 H         0.718195         2.156525         3.309068
 H         1.761284         4.041027         0.921593
 H         1.902135         2.117113         1.106096
 H        -0.040534         3.046117        -0.509769
