19
Iteration:  4125
 O         0.139293         0.053502         0.894404
 C        -0.605673         1.207381         0.828451
 C        -2.000919         1.226450         0.335520
 C        -1.710851         1.818042         1.715600
 C        -1.205698         3.210146         1.593300
 O        -0.525288         3.765419         2.714762
 C         0.745368         3.258925         2.777145
 C         1.249701         2.940950         1.356919
 C        -0.071568         2.645290         0.602670
 H         0.842767        -0.003433         1.500424
 H        -2.195408         1.961234        -0.400473
 H        -2.647378         0.276464         0.393123
 H        -2.206941         1.462101         2.538241
 H        -1.959555         4.050495         1.289008
 H         1.547794         3.844031         3.423411
 H         0.743329         2.239926         3.248445
 H         1.758450         3.803443         0.787452
 H         1.944033         2.067951         1.342543
 H        -0.205396         2.971362        -0.577893
