19
Iteration:  3078
 O         0.101600         0.061738         0.901795
 C        -0.636896         1.233503         0.818899
 C        -2.028627         1.147650         0.361620
 C        -1.898575         1.807513         1.659837
 C        -1.116744         3.251203         1.568041
 O        -0.499389         3.718326         2.696840
 C         0.868281         3.336199         2.823399
 C         1.201070         2.923453         1.378249
 C        -0.027334         2.619109         0.595895
 H         0.959567         0.339368         1.362071
 H        -2.438497         1.694349        -0.439876
 H        -2.608527         0.249436         0.528707
 H        -2.252210         1.363880         2.575870
 H        -1.638901         4.065014         1.222608
 H         1.515268         4.159400         3.121126
 H         0.996891         2.458451         3.463905
 H         1.688228         3.758240         0.885220
 H         1.941773         2.108895         1.469333
 H         0.112230         2.956955        -0.433853
