19
Iteration:  4239charge 0 multiplicity 1
 O         0.226796         0.069255         0.851399
 C        -0.629726         1.208579         0.765342
 C        -2.065548         1.180282         0.403332
 C        -1.811859         1.874672         1.788547
 C        -1.114191         3.244624         1.527497
 O        -0.505701         3.835394         2.720119
 C         0.749460         3.156772         2.820285
 C         1.175069         2.992671         1.362888
 C        -0.032714         2.592762         0.576019
 H         0.945594         0.320362         1.441944
 H        -2.530232         1.669594        -0.590825
 H        -2.557413         0.229718         0.439668
 H        -2.090846         1.240371         2.766710
 H        -1.829353         3.964762         1.104487
 H         1.398310         3.717965         3.438300
 H         0.450062         2.191631         3.344238
 H         1.682439         3.789798         1.067787
 H         1.729676         2.069940         1.212612
 H         0.271105         2.795739        -0.491827
