19
Iteration:  1716charge 0 multiplicity 1
 O         0.166029         0.025916         0.931900
 C        -0.581904         1.197629         0.846008
 C        -2.020742         1.321550         0.420502
 C        -1.662400         1.766782         1.805398
 C        -1.148776         3.196746         1.471565
 O        -0.543576         3.806432         2.585006
 C         0.746272         3.346500         2.809959
 C         1.213004         2.926293         1.379662
 C        -0.046636         2.587428         0.671130
 H        -0.286160        -0.600462         0.325857
 H        -2.525084         1.923899        -0.317999
 H        -2.551055         0.305528         0.222791
 H        -2.187821         1.484518         2.759694
 H        -2.031077         3.808795         1.167000
 H         1.274121         4.156751         3.272878
 H         0.853042         2.307992         3.341463
 H         1.814456         3.616984         0.893225
 H         1.930031         2.027378         1.375611
 H         0.023881         3.003137        -0.350854
