19
Iteration:  3647charge 0 multiplicity 1
 O         0.113206         0.063647         0.911766
 C        -0.604726         1.272807         0.824779
 C        -2.092619         1.143470         0.374685
 C        -1.688528         1.797892         1.723545
 C        -1.131194         3.244837         1.550239
 O        -0.532744         3.795742         2.693821
 C         0.761179         3.153526         2.759248
 C         1.286180         3.019573         1.393523
 C        -0.047882         2.673800         0.508097
 H         0.211346        -0.028302         1.919367
 H        -2.616785         1.770367        -0.331393
 H        -2.381117         0.051540         0.446966
 H        -2.160677         1.237298         2.595291
 H        -1.816415         4.104100         1.268808
 H         1.463629         3.622304         3.505976
 H         0.683112         2.179567         3.286136
 H         1.623294         4.067238         1.122961
 H         2.079758         2.071903         1.321896
 H         0.090248         2.970451        -0.635394
