19
Iteration:   417
 O         0.201459         0.084397         1.030215
 C        -0.663607         1.166769         0.918723
 C        -2.061489         1.179384         0.333367
 C        -1.821370         1.749825         1.695804
 C        -1.149291         3.297728         1.576197
 O        -0.507827         3.865833         2.618376
 C         0.832555         3.252701         2.716446
 C         1.312067         2.940844         1.309565
 C        -0.048999         2.612482         0.663287
 H        -0.109637        -0.748584         0.734450
 H        -2.454599         1.838538        -0.508743
 H        -2.582287         0.290948         0.410739
 H        -2.502678         1.500843         2.557031
 H        -1.812449         4.097304         1.199927
 H         1.400683         3.790676         3.521552
 H         0.580938         2.331297         3.223984
 H         1.720095         3.827123         0.912546
 H         2.097656         2.161640         1.289273
 H         0.025881         2.779858        -0.467381
