19
Iteration:  1108charge 0 multiplicity 1
 O         0.297379         0.173358         0.946137
 C        -0.694433         1.248237         0.818029
 C        -2.129813         1.217528         0.442263
 C        -1.673950         1.856213         1.784598
 C        -1.164545         3.223293         1.510749
 O        -0.507189         3.812356         2.593928
 C         0.686685         3.162566         2.801490
 C         1.231356         2.860372         1.390690
 C        -0.008802         2.633490         0.553008
 H        -0.117153        -0.661570         1.169065
 H        -2.547291         1.740016        -0.342671
 H        -2.562857         0.186403         0.629474
 H        -2.023556         1.450215         2.750771
 H        -1.904421         3.843508         1.068487
 H         1.465630         3.746927         3.380652
 H         0.680369         2.129994         3.261597
 H         1.768263         3.700522         0.900931
 H         1.936017         2.073297         1.235938
 H        -0.036550         3.073674        -0.500108
