19
Iteration:  1559charge 0 multiplicity 1
 O         0.075407        -0.006839         1.132776
 C        -0.520978         1.176372         0.956182
 C        -2.055277         1.284656         0.333101
 C        -1.692670         1.776967         1.687617
 C        -1.146334         3.177888         1.502169
 O        -0.540908         3.736015         2.670586
 C         0.817652         3.232054         2.727714
 C         1.223100         3.087199         1.281151
 C        -0.068301         2.680146         0.590119
 H         0.110369        -0.258425         0.235900
 H        -2.284889         2.024022        -0.491572
 H        -2.735486         0.379014         0.449319
 H        -2.086364         1.365626         2.675651
 H        -1.708871         3.943855         0.987761
 H         1.398762         3.894578         3.511914
 H         0.717896         2.108524         3.171834
 H         1.650315         4.041642         0.938569
 H         1.983341         2.360346         0.999903
 H        -0.030175         2.950849        -0.449950
