19
Iteration:  1630
 O         0.237812         0.190753         1.081335
 C        -0.631183         1.250987         0.851868
 C        -2.009783         1.201660         0.379173
 C        -1.743601         1.818759         1.760774
 C        -1.163599         3.230079         1.504999
 O        -0.535974         3.871182         2.615464
 C         0.786909         3.130637         2.771488
 C         1.163445         2.819169         1.315029
 C        -0.068690         2.641013         0.553423
 H         0.260942        -0.255607         0.265277
 H        -2.291839         1.886868        -0.341751
 H        -2.553988         0.230224         0.653612
 H        -1.833008         1.155326         2.628407
 H        -2.009128         4.016966         1.293899
 H         1.310296         3.742017         3.452457
 H         0.580663         2.193408         3.331609
 H         1.894594         3.558241         0.799709
 H         1.821935         1.800997         1.435382
 H        -0.156267         3.048217        -0.497245
