19
Iteration:  1942
 O         0.091473         0.044193         1.054223
 C        -0.663420         1.165013         0.859530
 C        -2.081198         1.300730         0.324702
 C        -1.649884         1.741497         1.804404
 C        -1.190482         3.171525         1.577368
 O        -0.502394         3.869141         2.642404
 C         0.757340         3.221290         2.746297
 C         1.284587         3.008150         1.367718
 C         0.017375         2.588468         0.543052
 H         0.355732        -0.287619         0.169474
 H        -2.353458         1.947006        -0.441775
 H        -2.704941         0.354069         0.361682
 H        -2.141765         1.204791         2.542322
 H        -1.995066         3.809864         1.262435
 H         1.451909         3.960811         3.227731
 H         0.734858         2.182072         3.147029
 H         1.514963         4.000601         0.934044
 H         2.150355         2.375368         1.288421
 H         0.123455         2.944841        -0.495855
