19
Iteration:  1354charge 0 multiplicity 1
 O         0.048744         0.078509         1.109092
 C        -0.580247         1.176761         0.791655
 C        -2.034069         1.253493         0.281357
 C        -1.651426         1.764099         1.788626
 C        -1.196080         3.190579         1.569137
 O        -0.501545         3.769352         2.658613
 C         0.848264         3.318180         2.773184
 C         1.247286         2.962310         1.270715
 C        -0.118089         2.619076         0.629300
 H         0.676506        -0.199290         0.454920
 H        -2.246779         1.884094        -0.511019
 H        -2.663222         0.326829         0.118877
 H        -2.214597         1.352880         2.626693
 H        -1.984832         3.939928         1.192045
 H         1.424518         4.044561         3.282516
 H         0.964355         2.357089         3.483939
 H         1.720352         3.821342         0.800641
 H         1.891809         2.000818         1.298477
 H        -0.259667         2.956277        -0.460658
