19
Iteration:  2343charge 0 multiplicity 1
 O         0.164460         0.004182         0.837966
 C        -0.652701         1.177388         0.815150
 C        -2.050866         1.280174         0.452519
 C        -1.679299         1.769466         1.805303
 C        -1.146335         3.201757         1.568549
 O        -0.600317         3.917231         2.597205
 C         0.774048         3.335077         2.779108
 C         1.220616         2.834320         1.410352
 C        -0.032304         2.579497         0.696945
 H         0.956235         0.110544         0.212298
 H        -2.286164         2.014606        -0.498172
 H        -2.676167         0.369801         0.457649
 H        -1.981449         1.203045         2.699711
 H        -1.857160         3.830114         0.995809
 H         1.384242         4.197288         3.238759
 H         0.747829         2.533291         3.630017
 H         1.830736         3.554369         0.715277
 H         1.955766         2.049324         1.478669
 H        -0.051551         2.727502        -0.416966
