19
Iteration:  4969
 O         0.168767         0.107710         0.858417
 C        -0.622680         1.224408         0.811511
 C        -2.067139         1.194028         0.408356
 C        -1.753113         1.842529         1.741306
 C        -1.156485         3.250212         1.481457
 O        -0.534273         3.796041         2.635699
 C         0.711548         3.062106         2.846109
 C         1.238721         2.950510         1.395641
 C         0.032902         2.679785         0.622895
 H         0.975940         0.321231         1.321895
 H        -2.487950         1.638696        -0.409083
 H        -2.376122         0.157018         0.790516
 H        -2.360215         1.560716         2.759994
 H        -1.733911         4.005887         1.021422
 H         1.187433         3.643457         3.544223
 H         0.375763         2.149250         3.356467
 H         1.649192         3.939615         1.117931
 H         1.979819         2.199437         1.150792
 H         0.284359         2.946338        -0.447492
