19
Iteration:  4290charge 0 multiplicity 1
 O         0.093117         0.055009         0.819527
 C        -0.562967         1.239994         0.770781
 C        -2.073386         1.168555         0.381404
 C        -1.622766         1.786329         1.779130
 C        -1.194983         3.252377         1.522486
 O        -0.535818         3.837977         2.680509
 C         0.722622         3.230321         2.802887
 C         1.277821         2.930748         1.426272
 C        -0.070959         2.625804         0.597455
 H         0.799780        -0.012433         1.547627
 H        -2.481641         1.842218        -0.349483
 H        -2.558667         0.229953         0.341117
 H        -1.914215         1.331459         2.736552
 H        -2.090145         3.865065         1.209015
 H         1.289506         3.809019         3.590349
 H         0.509296         2.254771         3.370642
 H         1.764312         3.925356         0.927873
 H         2.169195         2.196979         1.535438
 H         0.140410         2.926063        -0.476350
