19
Iteration:  2491charge 0 multiplicity 1
 O         0.159343         0.097141         1.069971
 C        -0.654265         1.257840         0.927979
 C        -2.019889         1.198374         0.346811
 C        -1.797411         1.877188         1.713695
 C        -1.150323         3.207898         1.492122
 O        -0.553216         3.595554         2.728267
 C         0.856718         3.240706         2.698101
 C         1.288549         3.082336         1.245495
 C        -0.033058         2.615789         0.568021
 H        -0.621092        -0.545345         1.025411
 H        -2.444441         1.617078        -0.568264
 H        -2.465992         0.267197         0.568989
 H        -1.992231         1.653286         2.841233
 H        -1.793796         4.135845         1.289979
 H         1.329246         4.078547         3.225440
 H         0.953128         2.208412         3.320744
 H         1.622690         3.999917         0.754689
 H         2.166274         2.361477         1.189214
 H        -0.079047         2.839965        -0.514028
