19
Iteration:  3604charge 0 multiplicity 1
 O         0.164091         0.036856         0.935442
 C        -0.673795         1.209478         0.855897
 C        -2.052233         1.259589         0.330591
 C        -1.817908         1.743582         1.675044
 C        -1.157225         3.239299         1.615130
 O        -0.510850         3.753761         2.732018
 C         0.803752         3.252758         2.804137
 C         1.206741         2.998785         1.296539
 C         0.015974         2.628026         0.562629
 H         1.011865         0.036219         1.497888
 H        -2.133631         1.928718        -0.488410
 H        -2.690552         0.314321         0.267273
 H        -2.364262         1.477909         2.654586
 H        -1.947771         3.916437         1.135146
 H         1.534928         4.050206         3.208595
 H         0.940612         2.424581         3.523194
 H         1.864946         3.770435         0.758649
 H         1.781863         1.941918         1.408907
 H        -0.104760         2.972151        -0.517034
