19
Iteration:  3972
 O         0.113889        -0.033535         0.795589
 C        -0.670728         1.224732         0.822368
 C        -2.021987         1.199575         0.369887
 C        -1.806484         1.820715         1.742137
 C        -1.130119         3.263753         1.591718
 O        -0.566657         3.692927         2.713705
 C         0.814501         3.376523         2.759245
 C         1.293763         2.954069         1.386477
 C        -0.021084         2.653282         0.643291
 H         0.866305         0.027967         1.378601
 H        -2.391638         1.751525        -0.560191
 H        -2.391116         0.262049         0.659562
 H        -2.238492         1.531996         2.698247
 H        -1.885964         3.958868         1.085456
 H         1.358432         4.143841         3.466746
 H         0.834354         2.432452         3.316895
 H         1.676374         3.767155         0.762221
 H         2.054204         2.203698         1.449997
 H         0.113918         2.916288        -0.385320
