19
Iteration:  4400charge 0 multiplicity 1
 O         0.185921         0.115383         0.883773
 C        -0.641756         1.284015         0.757486
 C        -1.995892         1.180168         0.373296
 C        -1.780372         1.751271         1.781757
 C        -1.178722         3.202872         1.534903
 O        -0.499369         3.827632         2.665191
 C         0.707318         3.154289         2.805145
 C         1.222776         2.970257         1.307951
 C        -0.011736         2.622606         0.667106
 H         0.546719        -0.056654         1.742579
 H        -2.355886         1.908267        -0.370887
 H        -2.355998         0.280348         0.214356
 H        -2.258992         1.389323         2.755732
 H        -1.859100         4.053165         1.203015
 H         1.379536         3.760752         3.457099
 H         0.555266         2.099469         3.328031
 H         1.833822         3.899477         0.853046
 H         1.862314         2.072146         1.495364
 H         0.060752         2.986084        -0.393400
