19
Iteration:  2714
 O         0.156159         0.007058         0.992423
 C        -0.634668         1.248127         0.818252
 C        -2.029488         1.231367         0.352838
 C        -1.869176         1.814508         1.707323
 C        -1.120441         3.257803         1.538701
 O        -0.487746         3.729135         2.709211
 C         0.816596         3.210289         2.827877
 C         1.240921         2.974220         1.314689
 C        -0.073796         2.596903         0.566062
 H         1.095419         0.398303         0.993423
 H        -2.533804         1.736539        -0.421669
 H        -2.440884         0.235304         0.588540
 H        -2.530276         1.490555         2.558702
 H        -1.613024         4.197071         1.008473
 H         1.291387         4.204009         3.226593
 H         0.814791         2.370257         3.478918
 H         1.690390         3.888640         0.852393
 H         1.950922         2.137868         1.240769
 H        -0.127839         3.017990        -0.450309
