19
Iteration:  2972
 O         0.155396         0.121545         0.925755
 C        -0.582222         1.213708         0.861293
 C        -2.018155         1.176390         0.465945
 C        -1.717065         1.933361         1.750210
 C        -1.136844         3.196097         1.507840
 O        -0.591289         3.730778         2.644428
 C         0.744287         3.096746         2.771408
 C         1.214536         2.916676         1.344406
 C        -0.060418         2.654452         0.584032
 H         1.128230         0.291578         1.133178
 H        -2.372120         1.850970        -0.499268
 H        -2.770743         0.413061         0.526115
 H        -2.206849         1.749723         2.666541
 H        -1.730472         4.083785         1.026809
 H         1.355863         3.905952         3.246525
 H         0.754733         2.275288         3.549001
 H         1.766459         3.801878         0.876168
 H         1.944352         2.119443         1.213511
 H         0.022830         3.078703        -0.475521
