19
Iteration:   215
 O         0.121196         0.099501         1.139018
 C        -0.626646         1.216691         0.881342
 C        -1.963048         1.238571         0.240749
 C        -1.799842         1.840851         1.741834
 C        -1.147971         3.233294         1.546519
 O        -0.479951         3.757108         2.657189
 C         0.885189         3.258745         2.707665
 C         1.151588         2.973057         1.332895
 C        -0.076958         2.514073         0.620408
 H        -0.206580        -0.798701         0.932622
 H        -2.248398         1.796359        -0.693295
 H        -2.490423         0.350321         0.271672
 H        -2.207874         1.386532         2.535543
 H        -1.653456         4.166031         1.239793
 H         1.468619         4.025812         3.204726
 H         0.865598         2.384279         3.345846
 H         1.409438         3.899913         0.837506
 H         2.007601         2.453057         0.981494
 H        -0.016811         2.791879        -0.433863
