19
Iteration:  3932charge 0 multiplicity 1
 O         0.072169         0.021892         0.900551
 C        -0.607430         1.231539         0.795989
 C        -2.049311         1.210669         0.336098
 C        -1.683301         1.809974         1.716243
 C        -1.174489         3.200239         1.612948
 O        -0.506673         3.797652         2.701610
 C         0.782794         3.250486         2.782223
 C         1.240905         3.013707         1.338243
 C        -0.040180         2.575499         0.630138
 H         0.626141         0.081966         1.740912
 H        -2.479256         1.907049        -0.499181
 H        -2.541076         0.141981         0.118697
 H        -1.982216         1.312120         2.560522
 H        -1.870408         4.007417         1.332200
 H         1.345929         3.930078         3.411434
 H         0.805224         2.214296         3.212723
 H         1.522544         3.968896         0.893352
 H         2.135042         2.269817         1.246500
 H         0.012003         3.009653        -0.388819
