19
Iteration:  3115charge 0 multiplicity 1
 O         0.125983         0.067466         0.866304
 C        -0.593933         1.269540         0.833701
 C        -2.053449         1.190994         0.468047
 C        -1.734974         1.796161         1.780554
 C        -1.151312         3.234270         1.539961
 O        -0.504092         3.831721         2.613884
 C         0.715907         3.174109         2.772731
 C         1.235222         2.922276         1.433256
 C        -0.029932         2.660977         0.537473
 H         1.031331         0.075888         1.293857
 H        -2.493078         1.910268        -0.301416
 H        -2.620182         0.226634         0.455576
 H        -1.956886         1.032223         2.569961
 H        -1.932624         3.987901         1.010736
 H         1.193341         3.842558         3.527485
 H         0.502523         2.340745         3.412019
 H         1.934368         3.705771         0.979313
 H         1.850074         2.019615         1.343849
 H         0.140547         2.959232        -0.560092
