19
Iteration:   975
 O        -0.026374        -0.083272         1.006837
 C        -0.663846         1.142564         0.757609
 C        -2.096105         1.201437         0.340670
 C        -1.777136         1.793838         1.734656
 C        -1.109966         3.170320         1.541117
 O        -0.512255         3.765423         2.730756
 C         0.893858         3.470385         2.745305
 C         1.304134         3.024164         1.373097
 C         0.000800         2.616756         0.652723
 H         0.672044        -0.204116         0.369272
 H        -2.336241         1.794885        -0.528644
 H        -2.526531         0.223458         0.289742
 H        -2.250702         1.500942         2.737761
 H        -1.839191         3.898277         1.235333
 H         1.354264         4.481780         2.906994
 H         1.322316         2.730083         3.508462
 H         1.659378         3.842062         0.788847
 H         2.092085         2.186603         1.382365
 H         0.093219         3.052679        -0.416688
