19
Iteration:  2725
 O         0.148684         0.128859         1.013341
 C        -0.680854         1.156124         0.864441
 C        -2.093674         1.223999         0.334831
 C        -1.738220         1.877895         1.722087
 C        -1.124609         3.229665         1.487175
 O        -0.539875         3.696100         2.700922
 C         0.831047         3.190075         2.759579
 C         1.249504         2.998079         1.346383
 C        -0.073689         2.576992         0.586564
 H         1.073570         0.387639         1.162369
 H        -2.273400         1.838608        -0.526810
 H        -2.739890         0.351384         0.364350
 H        -2.217370         1.481324         2.645909
 H        -1.867455         4.024003         1.071190
 H         1.520846         3.820828         3.444203
 H         0.850703         2.233298         3.222225
 H         1.703748         3.946560         0.975759
 H         2.098665         2.295696         1.293041
 H        -0.077601         2.846086        -0.482768
