19
Iteration:  1198
 O        -0.025347         0.029498         0.924393
 C        -0.625013         1.177676         0.780264
 C        -2.072041         1.190265         0.427479
 C        -1.628723         1.776730         1.761760
 C        -1.196746         3.186538         1.464607
 O        -0.574143         3.819300         2.687630
 C         0.863281         3.417298         2.792453
 C         1.291028         2.946716         1.409763
 C        -0.002693         2.557110         0.644278
 H         0.473772        -0.183547         0.073355
 H        -2.490876         1.756699        -0.424777
 H        -2.509075         0.305179         0.419711
 H        -1.877078         1.158443         2.649426
 H        -1.933298         3.920058         1.091462
 H         1.360493         4.262071         3.282232
 H         1.097698         2.698870         3.629024
 H         1.929529         3.723024         0.836989
 H         2.028136         2.183887         1.493411
 H         0.205672         3.028252        -0.397922
