19
Iteration:   522charge 0 multiplicity 1
 O         0.165097         0.035629         1.087635
 C        -0.617151         1.193135         0.797161
 C        -2.112121         1.186314         0.397721
 C        -1.730167         1.790884         1.774340
 C        -1.144902         3.275542         1.550705
 O        -0.466181         3.894573         2.629772
 C         0.732690         3.175958         2.765601
 C         1.278142         2.953275         1.304227
 C        -0.062748         2.640718         0.571528
 H         0.693525        -0.108511         0.328962
 H        -2.418719         1.787262        -0.527130
 H        -2.612090         0.251785         0.424431
 H        -2.405228         1.392603         2.680735
 H        -1.779985         4.043515         1.082955
 H         1.295764         3.857056         3.424908
 H         0.583971         2.139074         3.137415
 H         2.009884         3.705554         0.804397
 H         1.823276         2.047363         1.534377
 H        -0.241901         2.880112        -0.489113
