19
Iteration:  4478
 O         0.110454         0.078455         0.913838
 C        -0.622779         1.273860         0.818157
 C        -2.024722         1.175752         0.380281
 C        -1.763005         1.830271         1.752205
 C        -1.119440         3.221612         1.502813
 O        -0.557419         3.693550         2.664326
 C         0.789052         3.173586         2.807847
 C         1.222991         3.002152         1.371849
 C        -0.064548         2.678083         0.570626
 H         0.889424         0.261830         1.537671
 H        -2.402950         1.784991        -0.447406
 H        -2.249988         0.092080         0.426355
 H        -2.237579         1.481351         2.597399
 H        -1.777523         4.042452         1.102721
 H         1.361906         3.813996         3.458494
 H         0.799862         2.222083         3.380207
 H         1.887608         3.905488         1.112039
 H         2.108728         2.191849         1.422319
 H         0.005171         3.048646        -0.483974
