19
Iteration:  2620
 O         0.184802         0.054470         0.734679
 C        -0.582890         1.250659         0.822742
 C        -2.015426         1.120530         0.502075
 C        -1.703258         1.824826         1.871179
 C        -1.233350         3.246790         1.504162
 O        -0.523070         3.993210         2.571019
 C         0.769227         3.173848         2.797097
 C         1.246464         2.884692         1.444137
 C        -0.034809         2.614060         0.641616
 H        -0.430256        -0.644937         0.914603
 H        -2.539919         1.774073        -0.384133
 H        -2.458661         0.155739         0.541223
 H        -2.045148         1.336242         2.846926
 H        -1.909827         3.863699         0.979306
 H         1.432070         3.793116         3.279520
 H         0.490797         2.339855         3.471503
 H         1.687321         3.799450         1.106012
 H         2.023303         2.076728         1.580557
 H         0.071064         2.833702        -0.423653
