19
Iteration:  1633charge 0 multiplicity 1
 O         0.231099         0.208742         1.075129
 C        -0.607973         1.209808         0.883954
 C        -2.002619         1.237722         0.377233
 C        -1.718292         1.806248         1.778784
 C        -1.155034         3.242607         1.491744
 O        -0.562284         3.868897         2.603920
 C         0.771990         3.119051         2.766753
 C         1.171438         2.820643         1.303775
 C        -0.063584         2.626964         0.562576
 H         0.099379        -0.274213         0.201440
 H        -2.408602         1.920668        -0.388341
 H        -2.470865         0.275074         0.641035
 H        -1.820772         1.166951         2.690754
 H        -1.968283         3.954422         1.265679
 H         1.323763         3.727303         3.544229
 H         0.648733         2.212211         3.226422
 H         1.927612         3.551060         0.814403
 H         1.648539         1.859312         1.423134
 H        -0.175018         3.083288        -0.450062
