19
Iteration:  3763charge 0 multiplicity 1
 O         0.069206         0.012790         0.775139
 C        -0.571713         1.217846         0.806614
 C        -2.061318         1.233302         0.444261
 C        -1.711631         1.809216         1.771603
 C        -1.203951         3.160473         1.525783
 O        -0.548163         3.787009         2.685055
 C         0.782940         3.270698         2.775091
 C         1.309955         2.989771         1.410027
 C         0.017054         2.657447         0.605711
 H         0.396819        -0.130014         1.718877
 H        -2.517141         1.854646        -0.377748
 H        -2.348198         0.095046         0.317211
 H        -2.239392         1.615405         2.779924
 H        -2.012414         3.839211         1.161705
 H         1.272585         4.078407         3.341292
 H         0.747603         2.458172         3.488347
 H         1.857741         3.848359         1.028928
 H         1.889469         2.122062         1.311571
 H         0.132020         2.819629        -0.404109
