19
Iteration:   664
 O         0.172101         0.139638         0.948379
 C        -0.647641         1.291793         0.821159
 C        -2.044531         1.047851         0.528134
 C        -1.739208         1.939153         1.812120
 C        -1.161718         3.263878         1.392067
 O        -0.475687         3.895641         2.558099
 C         0.722229         3.064296         2.871904
 C         1.266029         2.824963         1.418394
 C        -0.052178         2.657689         0.526102
 H        -0.193287        -0.448259         0.335190
 H        -2.673394         1.437204        -0.394253
 H        -2.258528         0.052743         0.841747
 H        -2.056638         1.645663         2.788532
 H        -1.814457         4.059433         1.061154
 H         1.320260         3.863590         3.341115
 H         0.678774         2.122291         3.468008
 H         1.613017         3.822833         0.923878
 H         2.132612         2.178911         1.465314
 H         0.248943         3.097330        -0.566251
