19
Iteration:  1881
 O         0.208961         0.213646         1.040615
 C        -0.708806         1.260121         0.822098
 C        -2.129463         1.172080         0.408387
 C        -1.796628         1.863318         1.671915
 C        -1.090923         3.184745         1.434914
 O        -0.538429         3.669433         2.743807
 C         0.882348         3.307700         2.780412
 C         1.233609         2.891489         1.390780
 C        -0.040945         2.564099         0.583186
 H         0.129952        -0.459679         0.283093
 H        -2.382115         1.669542        -0.621639
 H        -2.494504         0.148922         0.402520
 H        -2.045938         1.570078         2.671164
 H        -1.687183         4.038232         1.012748
 H         1.257835         4.154030         3.302192
 H         0.986307         2.502631         3.542810
 H         1.586363         3.696137         0.780295
 H         1.996783         2.041651         1.190831
 H        -0.013359         3.051873        -0.396565
