19
Iteration:  3947charge 0 multiplicity 1
 O         0.069991         0.035126         0.855729
 C        -0.687201         1.250121         0.837004
 C        -2.069166         1.182753         0.324527
 C        -1.816792         1.672460         1.755891
 C        -1.106611         3.256355         1.491511
 O        -0.534578         3.757127         2.723278
 C         0.876455         3.274479         2.839687
 C         1.274416         3.015850         1.367105
 C        -0.007962         2.649872         0.615313
 H         0.700105         0.073036         1.533825
 H        -2.339113         1.832472        -0.383741
 H        -2.404830         0.206033         0.394719
 H        -2.235379         1.281859         2.789510
 H        -1.782796         3.883406         0.942957
 H         1.548502         4.069429         3.191986
 H         0.863598         2.466204         3.631904
 H         1.588571         4.055097         0.995202
 H         2.144238         2.398171         1.202385
 H         0.038230         2.894239        -0.531128
