19
Iteration:  4774
 O         0.217671         0.115681         0.837531
 C        -0.640535         1.244950         0.863097
 C        -2.016240         1.157690         0.456299
 C        -1.791727         1.803001         1.711381
 C        -1.120820         3.323756         1.507871
 O        -0.556174         3.776276         2.640911
 C         0.687211         3.117333         2.817326
 C         1.281055         2.879577         1.386592
 C        -0.010867         2.729539         0.569983
 H         0.425962        -0.165868         1.707186
 H        -2.503539         1.691754        -0.435973
 H        -2.473248         0.225148         0.518658
 H        -2.243303         1.353042         2.715639
 H        -1.696642         4.182558         1.096885
 H         1.195383         3.758769         3.435411
 H         0.641190         2.151087         3.386416
 H         1.729804         3.791206         1.115629
 H         1.860727         2.038461         1.236182
 H         0.077862         3.099850        -0.383401
