19
Iteration:   759charge 0 multiplicity 1
 O         0.043717        -0.015820         1.088950
 C        -0.636140         1.224118         0.853813
 C        -2.061250         1.156708         0.362542
 C        -1.787675         1.830352         1.678986
 C        -1.144102         3.265245         1.462052
 O        -0.498169         3.701527         2.756991
 C         0.907492         3.386684         2.741361
 C         1.231012         3.018412         1.323782
 C         0.004100         2.565789         0.589856
 H         0.072107        -0.537416         0.233967
 H        -2.420948         1.696392        -0.580984
 H        -2.567227         0.274666         0.584708
 H        -2.487167         1.587192         2.578277
 H        -1.591971         4.197413         0.961190
 H         1.564491         4.155727         3.186025
 H         1.084205         2.494577         3.432756
 H         1.661375         3.953303         0.858170
 H         2.095047         2.386713         1.275100
 H        -0.049019         2.909837        -0.393360
