19
Iteration:  4307
 O         0.152457        -0.029688         0.789814
 C        -0.646100         1.146479         0.798465
 C        -2.031853         1.263757         0.387376
 C        -1.683113         1.758678         1.756293
 C        -1.124570         3.180281         1.600220
 O        -0.547242         3.921581         2.648135
 C         0.721641         3.194403         2.893612
 C         1.198349         2.994853         1.387651
 C         0.005745         2.649221         0.592765
 H         0.819864         0.258019         1.513612
 H        -2.423812         1.819339        -0.486772
 H        -2.723496         0.254801         0.489397
 H        -2.263352         1.380780         2.554890
 H        -1.746813         3.822628         0.996929
 H         1.467402         3.888987         3.318817
 H         0.720222         2.280337         3.471129
 H         1.604490         3.890424         1.088792
 H         1.914757         2.255402         1.212689
 H        -0.081583         3.088668        -0.361395
