19
Iteration:  4913
 O         0.059059         0.075878         0.886016
 C        -0.620789         1.210512         0.763103
 C        -1.959168         1.210201         0.320589
 C        -1.716488         1.693232         1.719912
 C        -1.218717         3.249628         1.580040
 O        -0.529351         3.824266         2.702968
 C         0.783879         3.239032         2.787605
 C         1.313362         2.942207         1.407144
 C        -0.083797         2.677360         0.596087
 H         0.448206         0.007880         1.821473
 H        -2.399306         1.868832        -0.379582
 H        -2.370736         0.274034         0.146609
 H        -2.080376         1.157202         2.618879
 H        -1.873538         4.022898         1.234652
 H         1.384483         3.958316         3.334781
 H         0.724652         2.354236         3.455301
 H         1.964338         3.802691         1.112714
 H         1.899425         2.001736         1.443856
 H         0.095745         2.949483        -0.505497
