19
Iteration:  2358
 O         0.104887        -0.032461         0.819710
 C        -0.622268         1.202681         0.873997
 C        -2.070167         1.228119         0.444487
 C        -1.618663         1.781929         1.848347
 C        -1.207701         3.157317         1.492963
 O        -0.526861         3.900190         2.585049
 C         0.733138         3.321405         2.855640
 C         1.280060         2.929886         1.422902
 C        -0.038570         2.600017         0.548837
 H         0.977576         0.155250         0.376769
 H        -2.455284         1.911104        -0.211480
 H        -2.509698         0.201169         0.484988
 H        -2.149556         1.595771         2.746010
 H        -1.934335         3.927607         1.161742
 H         1.299429         4.027799         3.324604
 H         0.579557         2.322779         3.417013
 H         1.811513         3.772856         1.111642
 H         1.837891         1.973847         1.481740
 H         0.074734         3.033404        -0.411635
