19
Iteration:  1206charge 0 multiplicity 1
 O         0.033064        -0.030066         0.943707
 C        -0.620715         1.207968         0.750815
 C        -2.067074         1.192119         0.373672
 C        -1.680413         1.771275         1.791484
 C        -1.201300         3.227265         1.515136
 O        -0.582316         3.858519         2.675631
 C         0.905551         3.386962         2.874820
 C         1.269080         2.894486         1.388041
 C        -0.026139         2.610917         0.590486
 H         0.570130        -0.025765         0.138394
 H        -2.508211         1.743799        -0.441662
 H        -2.459867         0.150696         0.475253
 H        -1.918414         1.336781         2.861106
 H        -1.896738         3.892330         1.062643
 H         1.492997         4.330216         3.062655
 H         0.923663         2.533250         3.479486
 H         1.688192         3.773119         0.810139
 H         2.019928         2.107266         1.431339
 H         0.172870         2.873535        -0.388438
