19
Iteration:  1544
 O         0.128528        -0.010343         1.117580
 C        -0.682811         1.183129         0.806458
 C        -2.023421         1.204140         0.308850
 C        -1.766093         1.773906         1.746774
 C        -1.190643         3.216201         1.586983
 O        -0.473582         3.834235         2.669358
 C         0.794454         3.204859         2.754162
 C         1.303064         3.123328         1.283986
 C        -0.015602         2.631093         0.597374
 H        -0.001975        -0.787251         0.490892
 H        -2.151923         1.952821        -0.448337
 H        -2.590569         0.286734         0.091998
 H        -2.256900         1.335043         2.581198
 H        -2.016079         3.884769         1.259510
 H         1.490401         3.849201         3.320143
 H         0.814216         2.202090         3.254957
 H         1.508454         4.151233         0.864024
 H         2.083678         2.408394         1.280888
 H        -0.128985         2.960446        -0.483104
