19
Iteration:   411charge 0 multiplicity 1
 O         0.236061         0.056673         1.020225
 C        -0.645908         1.162751         0.926997
 C        -2.067708         1.203392         0.309165
 C        -1.842223         1.763893         1.723731
 C        -1.159347         3.305006         1.589985
 O        -0.472424         3.861428         2.630197
 C         0.775169         3.290778         2.730494
 C         1.319949         2.944005         1.326049
 C        -0.047560         2.600402         0.618287
 H        -0.119425        -0.859792         0.744962
 H        -2.232112         1.969498        -0.424237
 H        -2.794063         0.269118         0.429522
 H        -2.412160         1.558703         2.596552
 H        -1.911026         4.009402         1.212983
 H         1.326230         3.781731         3.488725
 H         0.558820         2.204795         3.060193
 H         1.712400         3.829140         0.652081
 H         1.982984         2.060459         1.411312
 H        -0.054976         2.716569        -0.462639
