19
Iteration:  2399
 O         0.108006         0.046229         0.832591
 C        -0.588873         1.216740         0.779038
 C        -2.123811         1.093471         0.531471
 C        -1.620504         1.816291         1.796452
 C        -1.132909         3.270313         1.453409
 O        -0.482715         3.869274         2.608526
 C         0.682363         3.150600         2.844579
 C         1.261115         2.984690         1.429591
 C        -0.025234         2.689200         0.512218
 H         0.596387         0.069262         1.642831
 H        -2.657572         1.661291        -0.295557
 H        -2.635049         0.038676         0.693960
 H        -2.007014         1.642261         2.741808
 H        -1.926020         3.862107         1.051452
 H         1.303326         3.707450         3.523561
 H         0.462601         2.146345         3.334462
 H         1.625820         3.980309         1.040692
 H         2.048315         2.207347         1.415165
 H         0.014650         2.848798        -0.570921
