19
Iteration:  1239
 O         0.214152         0.102086         1.001915
 C        -0.704779         1.247437         0.841675
 C        -2.048852         1.217496         0.394416
 C        -1.703408         1.762358         1.781962
 C        -1.229774         3.230488         1.548129
 O        -0.533837         3.900438         2.580259
 C         0.809425         3.172671         2.778821
 C         1.279227         2.879762         1.359166
 C        -0.062049         2.615982         0.617276
 H         0.581006        -0.127996         0.162913
 H        -2.309949         1.889988        -0.444954
 H        -2.637442         0.351157         0.562125
 H        -2.128314         1.476492         2.803681
 H        -1.923029         3.878541         1.065915
 H         1.497713         3.698443         3.542436
 H         0.584337         2.220540         3.256324
 H         1.754593         3.735647         0.795270
 H         1.890961         1.986589         1.291655
 H        -0.018989         2.806470        -0.395338
