19
Iteration:  3784charge 0 multiplicity 1
 O         0.093201        -0.021872         0.793513
 C        -0.631003         1.206636         0.832447
 C        -2.060221         1.210649         0.356168
 C        -1.675912         1.770599         1.790188
 C        -1.116559         3.223788         1.505673
 O        -0.548637         3.855568         2.691910
 C         0.784372         3.242073         2.850012
 C         1.281078         3.039583         1.380458
 C        -0.024462         2.624199         0.609254
 H         0.175900        -0.343180         1.727405
 H        -2.421550         1.917897        -0.414001
 H        -2.617794         0.176157         0.471385
 H        -2.010465         1.059998         2.673579
 H        -1.813726         3.957558         1.047739
 H         1.449136         3.912054         3.380354
 H         0.671072         2.385083         3.528727
 H         1.493793         3.948343         0.816566
 H         2.048304         2.346811         1.245976
 H        -0.120758         2.955081        -0.334739
