19
Iteration:  1523
 O         0.133432         0.120752         1.010402
 C        -0.659461         1.234197         0.877855
 C        -1.997558         1.167990         0.322880
 C        -1.737499         1.760887         1.668135
 C        -1.160376         3.196207         1.540934
 O        -0.481623         3.846481         2.688164
 C         0.844500         3.248008         2.773230
 C         1.207131         2.964778         1.322877
 C        -0.021332         2.590309         0.629782
 H        -0.322057        -0.648574         0.776720
 H        -2.417024         1.612762        -0.584659
 H        -2.618233         0.223530         0.557802
 H        -2.187644         1.388898         2.562247
 H        -1.844218         3.981361         1.233773
 H         1.448185         4.035485         3.366894
 H         0.768129         2.269625         3.476383
 H         1.444937         3.994006         0.905407
 H         1.953007         2.267840         1.147493
 H        -0.097709         2.919978        -0.436086
