19
Iteration:  2375
 O         0.017291         0.014325         0.829366
 C        -0.570673         1.234793         0.754519
 C        -2.068988         1.132358         0.549585
 C        -1.690797         1.751020         1.807585
 C        -1.097257         3.273092         1.511496
 O        -0.552910         3.933034         2.574403
 C         0.698378         3.181600         2.817018
 C         1.261134         2.968372         1.424668
 C         0.043254         2.633382         0.614937
 H         0.982488         0.160312         0.766041
 H        -2.637559         1.647656        -0.356912
 H        -2.457037         0.086825         0.640764
 H        -1.840782         1.252821         2.777230
 H        -1.897296         3.788584         1.005105
 H         1.408927         3.860091         3.467338
 H         0.501841         2.273905         3.358542
 H         1.635827         3.966355         0.959107
 H         2.079702         2.247864         1.469089
 H         0.138980         2.930090        -0.501433
