19
Iteration:  2677charge 0 multiplicity 1
 O         0.063410         0.030418         0.833914
 C        -0.648458         1.240793         0.806896
 C        -2.054359         1.180455         0.362598
 C        -1.695965         1.759459         1.801859
 C        -1.108194         3.206253         1.553519
 O        -0.531706         3.815297         2.670929
 C         0.753338         3.353726         2.858923
 C         1.266053         2.924244         1.341230
 C        -0.014636         2.630883         0.604782
 H         0.609237         0.052561         1.678476
 H        -2.570810         1.870904        -0.422274
 H        -2.467676         0.114268         0.440061
 H        -2.211156         1.210955         2.542030
 H        -1.688883         4.015257         1.047025
 H         1.437080         4.069781         3.302713
 H         0.862038         2.471813         3.480454
 H         1.870029         3.694614         0.757682
 H         1.986593         2.053392         1.420355
 H        -0.059234         2.830216        -0.478613
