19
Iteration:  1542charge 0 multiplicity 1
 O         0.132836        -0.006646         1.115287
 C        -0.675727         1.186683         0.791435
 C        -2.032109         1.195047         0.289874
 C        -1.763065         1.782337         1.761842
 C        -1.192300         3.220030         1.608923
 O        -0.475292         3.838453         2.665376
 C         0.804311         3.205836         2.766612
 C         1.298817         3.121517         1.286508
 C        -0.022074         2.621022         0.595874
 H        -0.054808        -0.729651         0.533239
 H        -2.221830         1.957131        -0.461906
 H        -2.496921         0.280979         0.142414
 H        -2.323681         1.323705         2.542202
 H        -2.045080         3.870866         1.209039
 H         1.482018         3.785534         3.266063
 H         0.824086         2.285103         3.217773
 H         1.465434         4.113394         0.866287
 H         2.170485         2.356412         1.293525
 H        -0.077584         2.924223        -0.493242
