19
Iteration:  2806
 O         0.194837         0.182652         0.955018
 C        -0.682659         1.184431         0.825258
 C        -2.110739         1.212258         0.369559
 C        -1.705159         1.830958         1.778653
 C        -1.160733         3.167847         1.455835
 O        -0.502102         3.713552         2.620381
 C         0.762442         3.210730         2.828954
 C         1.246144         2.928347         1.319698
 C        -0.013537         2.682698         0.646931
 H         0.569257        -0.035418         1.797948
 H        -2.414880         1.909324        -0.370197
 H        -2.705643         0.230442         0.380661
 H        -2.220908         1.488359         2.693342
 H        -1.783346         3.963140         1.135460
 H         1.332177         3.950509         3.277060
 H         0.745137         2.197636         3.285296
 H         1.698221         3.794633         0.954422
 H         1.810497         2.026016         1.138483
 H         0.111243         2.993641        -0.394299
