19
Iteration:  4186
 O         0.093065         0.022690         0.919154
 C        -0.556521         1.238465         0.767179
 C        -2.043612         1.191137         0.413277
 C        -1.694239         1.850350         1.699356
 C        -1.147067         3.221723         1.553261
 O        -0.563744         3.768498         2.763848
 C         0.772048         3.200024         2.785291
 C         1.269175         3.002201         1.322918
 C        -0.040965         2.636095         0.545487
 H         0.650736         0.064195         1.688533
 H        -2.624631         1.863212        -0.381600
 H        -2.394651         0.206095         0.219609
 H        -2.209243         1.311229         2.641946
 H        -1.851091         3.856393         1.058175
 H         1.428872         3.828724         3.296591
 H         0.551250         2.207100         3.333672
 H         1.628793         3.991521         1.139402
 H         2.048398         2.273176         1.180231
 H        -0.150744         3.121195        -0.340565
