19
Iteration:   300charge 0 multiplicity 1
 O         0.196577         0.083577         1.000368
 C        -0.606790         1.174951         0.868979
 C        -2.115624         1.261615         0.456701
 C        -1.691528         1.749031         1.770663
 C        -1.182204         3.221273         1.569584
 O        -0.490529         3.956284         2.504858
 C         0.641235         3.240772         2.724604
 C         1.337604         2.842451         1.408866
 C        -0.029023         2.616383         0.635134
 H         0.403999        -0.380227         0.185011
 H        -2.429637         1.969848        -0.412400
 H        -2.684323         0.364248         0.497255
 H        -1.950199         1.400368         2.684720
 H        -1.954090         3.877388         1.093804
 H         1.315590         3.704549         3.383465
 H         0.405658         2.265624         3.306615
 H         1.900055         3.698229         0.828746
 H         1.815581         1.789311         1.356654
 H        -0.105635         2.868828        -0.409969
