19
Iteration:  4047
 O         0.166282         0.055494         0.767476
 C        -0.651352         1.219543         0.799013
 C        -2.015850         1.211518         0.457568
 C        -1.608170         1.861539         1.818544
 C        -1.178022         3.249662         1.539403
 O        -0.508949         3.838750         2.637169
 C         0.661727         3.134044         2.838723
 C         1.187227         2.964947         1.428233
 C        -0.023963         2.610773         0.543841
 H         0.581816        -0.147920         1.635346
 H        -2.429926         1.698696        -0.394035
 H        -2.397706         0.287936         0.625233
 H        -2.118066         1.323472         2.662179
 H        -1.868836         3.974132         1.039670
 H         1.339428         3.868058         3.378957
 H         0.599274         2.151947         3.393901
 H         1.747234         3.888667         1.061514
 H         1.836291         2.105386         1.399232
 H        -0.012825         2.984831        -0.581812
