19
Iteration:  1345
 O         0.167004         0.067808         1.136693
 C        -0.681539         1.219497         0.868801
 C        -2.059761         1.307470         0.294167
 C        -1.708201         1.753984         1.723999
 C        -1.160805         3.157511         1.552822
 O        -0.535336         3.771479         2.700685
 C         0.856493         3.267316         2.730633
 C         1.215493         3.003349         1.255117
 C        -0.061111         2.598307         0.577820
 H         0.612067        -0.340014         0.401581
 H        -2.199369         2.134029        -0.393621
 H        -2.683452         0.396643         0.351024
 H        -2.185361         1.302036         2.666368
 H        -1.912778         3.927040         1.251678
 H         1.383374         3.978564         3.249077
 H         0.732312         2.289077         3.224970
 H         1.862930         3.572173         0.685921
 H         1.871485         2.111873         1.454446
 H        -0.142385         2.975904        -0.512011
