19
Iteration:  2974
 O         0.147514         0.113029         0.924772
 C        -0.593250         1.232567         0.873134
 C        -2.004859         1.156940         0.463338
 C        -1.710890         1.921177         1.756470
 C        -1.156813         3.225566         1.505488
 O        -0.593033         3.730124         2.646342
 C         0.750958         3.093381         2.776320
 C         1.215913         2.931506         1.339798
 C        -0.050428         2.640349         0.576015
 H         1.090114         0.248370         1.150060
 H        -2.388265         1.887986        -0.481254
 H        -2.778085         0.452523         0.456692
 H        -2.255052         1.711711         2.644111
 H        -1.691285         4.029267         1.010231
 H         1.408329         3.892879         3.252257
 H         0.803070         2.259105         3.548724
 H         1.769120         3.820011         0.887570
 H         1.953726         2.159141         1.185397
 H         0.055822         3.087459        -0.470188
