19
Iteration:  4758charge 0 multiplicity 1
 O         0.173765         0.077538         0.862106
 C        -0.586043         1.242306         0.772538
 C        -2.101107         1.125431         0.364823
 C        -1.707879         1.928297         1.710600
 C        -1.206611         3.246385         1.466419
 O        -0.541511         3.791305         2.729779
 C         0.756212         3.127026         2.855556
 C         1.261613         2.971427         1.384049
 C        -0.043469         2.639532         0.620283
 H         0.542785         0.027352         1.725996
 H        -2.461753         1.620246        -0.501959
 H        -2.418944         0.052120         0.608592
 H        -2.136285         1.692784         2.624059
 H        -1.889223         3.939765         0.957940
 H         1.573766         3.706609         3.470380
 H         0.609641         2.134652         3.344390
 H         1.733503         3.961512         1.002325
 H         2.018824         2.066989         1.486567
 H         0.089103         2.998247        -0.478637
