19
Iteration:  2813
 O         0.195622         0.116065         0.924230
 C        -0.703302         1.220422         0.881216
 C        -2.095836         1.230708         0.375367
 C        -1.695852         1.810222         1.748700
 C        -1.171345         3.217152         1.510547
 O        -0.553171         3.698295         2.585664
 C         0.768620         3.227046         2.829141
 C         1.289618         2.887434         1.334461
 C        -0.024254         2.679963         0.625849
 H         0.730519         0.055860         1.784258
 H        -2.507097         2.051629        -0.239258
 H        -2.522931         0.341194         0.328115
 H        -2.178415         1.331402         2.565393
 H        -1.901038         4.112116         1.199691
 H         1.419549         4.109788         3.210039
 H         0.726951         2.420316         3.589411
 H         1.836980         3.798725         0.946768
 H         1.978170         2.049721         1.027324
 H        -0.022767         2.883196        -0.431757
