19
Iteration:  2569
 O         0.141251         0.116884         1.019659
 C        -0.600731         1.285505         0.792433
 C        -2.146094         1.180331         0.482212
 C        -1.592668         1.759045         1.771278
 C        -1.188536         3.255137         1.541418
 O        -0.513468         3.792340         2.569177
 C         0.724125         3.205298         2.805228
 C         1.263787         2.829376         1.314394
 C        -0.070210         2.682642         0.568349
 H         0.797733         0.146130         0.322047
 H        -2.546667         1.781258        -0.301332
 H        -2.530336         0.231728         0.463101
 H        -1.838401         1.466540         2.741443
 H        -1.935891         4.076564         1.209294
 H         1.252834         3.994523         3.427358
 H         0.693956         2.332686         3.514226
 H         1.774046         3.703324         0.826890
 H         1.860861         1.918365         1.394126
 H         0.002181         2.898026        -0.513117
