19
Iteration:    19charge 0 multiplicity 1
 O         0.071347        -0.056667         1.006240
 C        -0.641360         1.128328         0.864315
 C        -2.076412         1.270307         0.339554
 C        -1.721397         1.724791         1.786294
 C        -1.136610         3.182520         1.478626
 O        -0.577775         3.920768         2.619802
 C         0.842786         3.315183         2.742741
 C         1.288270         3.014336         1.367905
 C         0.026227         2.577842         0.685320
 H         0.712509        -0.057473         0.317841
 H        -2.189894         2.094147        -0.330635
 H        -2.857170         0.435055         0.117472
 H        -2.153049         1.346122         2.810324
 H        -1.854140         3.834746         0.922830
 H         1.385975         4.044645         3.444741
 H         0.702994         2.425452         3.365483
 H         1.747456         3.844291         0.868228
 H         1.874815         2.100994         1.450468
 H         0.005346         3.007090        -0.347511
