19
Iteration:  1399
 O         0.125568         0.028942         0.933521
 C        -0.693940         1.170057         0.829882
 C        -2.113424         1.174443         0.451856
 C        -1.670158         1.856238         1.791213
 C        -1.107393         3.179054         1.469492
 O        -0.575199         3.781679         2.629812
 C         0.787993         3.317055         2.768555
 C         1.339781         2.998967         1.373322
 C         0.008317         2.607676         0.623500
 H         0.119447        -0.401336         0.101648
 H        -2.465608         1.811288        -0.345544
 H        -2.675931         0.290538         0.666488
 H        -2.182793         1.431692         2.740062
 H        -1.835464         3.980457         1.099866
 H         1.215037         4.067841         3.352621
 H         0.725108         2.422816         3.604515
 H         1.586672         3.920109         0.861714
 H         2.213560         2.232759         1.437737
 H         0.134635         3.093173        -0.417653
