19
Iteration:  1847
 O         0.186909         0.072758         1.035754
 C        -0.615982         1.268005         0.870138
 C        -2.039451         1.179563         0.370606
 C        -1.720097         1.824801         1.728805
 C        -1.168802         3.223497         1.539666
 O        -0.560129         3.824349         2.716159
 C         0.763397         3.184090         2.774230
 C         1.303811         2.962496         1.261741
 C        -0.082651         2.679968         0.586794
 H        -0.287792        -0.654613         0.500045
 H        -2.081483         1.707959        -0.643465
 H        -2.518524         0.103114         0.480784
 H        -2.081229         1.508491         2.656989
 H        -1.825443         3.926453         0.972653
 H         1.429190         3.702094         3.468273
 H         0.618382         2.114951         3.021084
 H         1.827887         3.850242         0.990105
 H         2.000650         1.999994         1.218727
 H        -0.137768         2.992263        -0.461828
