19
Iteration:   287charge 0 multiplicity 1
 O         0.145060         0.022870         1.077612
 C        -0.668173         1.215939         0.741961
 C        -2.106264         1.198108         0.424705
 C        -1.659972         1.803836         1.777840
 C        -1.150933         3.206684         1.527656
 O        -0.491266         3.945077         2.574431
 C         0.782376         3.253496         2.797148
 C         1.222085         2.910807         1.396352
 C        -0.049737         2.583128         0.537747
 H         0.492087        -0.223079         0.161413
 H        -2.482952         1.847457        -0.447872
 H        -2.607335         0.258767         0.522773
 H        -2.016876         1.180729         2.637613
 H        -1.984794         3.881661         1.243489
 H         1.345712         4.002379         3.397218
 H         0.555099         2.264031         3.310647
 H         1.956041         3.646032         0.969520
 H         1.934152         2.028687         1.617158
 H         0.168089         3.032259        -0.474451
