19
Iteration:   776charge 0 multiplicity 1
 O         0.119129         0.025377         1.079888
 C        -0.686916         1.152987         0.930203
 C        -2.020811         1.276922         0.346018
 C        -1.793100         1.906298         1.691165
 C        -1.106000         3.237596         1.506169
 O        -0.531780         3.633561         2.667780
 C         0.889861         3.338654         2.770415
 C         1.261268         3.034311         1.280250
 C        -0.047692         2.549853         0.643870
 H        -0.264760        -0.595349         0.366222
 H        -2.167167         1.882414        -0.504304
 H        -2.597248         0.297342         0.360196
 H        -2.212678         1.727979         2.708063
 H        -1.850963         3.883160         1.107847
 H         1.286924         4.341224         3.007267
 H         1.085297         2.561808         3.488114
 H         1.457138         3.902513         0.687165
 H         2.051889         2.232586         1.114882
 H         0.109444         2.722043        -0.494943
