19
Iteration:  2129
 O         0.092642         0.044834         1.052143
 C        -0.575761         1.237798         0.845671
 C        -1.981458         1.256165         0.372218
 C        -1.749920         1.733434         1.752242
 C        -1.192846         3.162355         1.569576
 O        -0.519437         3.852751         2.653568
 C         0.774822         3.215323         2.767646
 C         1.236922         2.939794         1.251748
 C        -0.050074         2.646024         0.617875
 H         0.909560         0.060392         0.444731
 H        -2.313385         2.032602        -0.379737
 H        -2.535655         0.375096         0.359733
 H        -2.223188         1.350321         2.733395
 H        -1.906177         3.974514         1.305155
 H         1.527449         3.966085         3.224601
 H         0.676495         2.267076         3.202170
 H         1.704795         3.805449         0.941804
 H         1.877964         2.039467         1.011574
 H        -0.179289         2.939644        -0.442840
