19
Iteration:  1754
 O         0.164149         0.086531         1.005812
 C        -0.643110         1.229058         0.757771
 C        -2.120839         1.136039         0.362410
 C        -1.703470         1.731327         1.693039
 C        -1.198086         3.225865         1.560653
 O        -0.466517         3.861225         2.638695
 C         0.814151         3.346368         2.792347
 C         1.240648         2.827510         1.416756
 C        -0.064172         2.670157         0.651162
 H         0.612073        -0.227108         0.243306
 H        -2.610319         1.796569        -0.396460
 H        -2.422354         0.115807         0.383824
 H        -2.181926         1.406264         2.603157
 H        -1.867355         4.038921         1.199680
 H         1.500648         4.102866         3.309685
 H         0.659685         2.542195         3.494900
 H         1.850082         3.555894         0.677507
 H         1.686345         1.892017         1.571093
 H        -0.036115         3.083628        -0.395703
