19
Iteration:  4563charge 0 multiplicity 1
 O         0.087550         0.010510         0.824992
 C        -0.564095         1.210431         0.791664
 C        -2.065076         1.195902         0.461246
 C        -1.645148         1.853784         1.665735
 C        -1.115107         3.206651         1.504051
 O        -0.597915         3.765702         2.691547
 C         0.690640         3.231389         2.848905
 C         1.230492         2.988167         1.382220
 C         0.025887         2.664959         0.649319
 H         0.873894         0.008950         1.382630
 H        -2.635191         1.722691        -0.432882
 H        -2.631699         0.188006         0.496313
 H        -1.930903         1.537650         2.608511
 H        -1.797747         4.013309         1.112182
 H         1.457700         4.040375         3.295338
 H         0.643874         2.280990         3.442728
 H         1.761332         3.913671         1.003242
 H         1.871051         2.199518         1.408475
 H         0.109939         2.920857        -0.416533
