19
Iteration:  3118charge 0 multiplicity 1
 O         0.127592         0.074996         0.860121
 C        -0.572154         1.276048         0.807284
 C        -2.047153         1.227791         0.493811
 C        -1.728167         1.798403         1.804254
 C        -1.156006         3.208423         1.522516
 O        -0.483927         3.835260         2.597400
 C         0.691966         3.169709         2.771376
 C         1.238808         2.935823         1.443351
 C        -0.042329         2.643392         0.547288
 H         0.939137         0.055112         1.334023
 H        -2.466317         1.850074        -0.273850
 H        -2.593985         0.177569         0.417208
 H        -2.010520         1.038288         2.547691
 H        -1.863550         3.933725         1.005560
 H         1.140731         3.821394         3.495420
 H         0.444646         2.264602         3.392972
 H         1.847972         3.697606         1.047351
 H         1.840751         2.017410         1.325037
 H         0.055465         2.935151        -0.488195
