19
Iteration:  3748
 O         0.091250         0.045598         0.811502
 C        -0.659226         1.269772         0.832778
 C        -2.032960         1.206987         0.402002
 C        -1.718454         1.761147         1.777176
 C        -1.112263         3.239870         1.559002
 O        -0.591603         3.780648         2.657581
 C         0.759625         3.296767         2.882343
 C         1.287790         2.877506         1.330379
 C        -0.007668         2.614981         0.569164
 H         0.872298         0.091540         1.450536
 H        -2.434026         1.759254        -0.386271
 H        -2.609218         0.369472         0.542469
 H        -2.087648         1.203976         2.603733
 H        -1.697932         4.007978         1.046595
 H         1.358133         4.090478         3.334512
 H         0.824907         2.379197         3.474475
 H         1.760580         3.791307         0.895558
 H         2.158443         2.175358         1.509552
 H        -0.096641         3.167220        -0.410148
