19
Iteration:  2731charge 0 multiplicity 1
 O         0.150919         0.113838         1.022785
 C        -0.711158         1.226398         0.876244
 C        -2.108714         1.216883         0.349312
 C        -1.699436         1.870851         1.703872
 C        -1.183615         3.190824         1.492189
 O        -0.537126         3.703859         2.698230
 C         0.801752         3.161673         2.755542
 C         1.274436         2.995749         1.326185
 C        -0.015298         2.607703         0.597717
 H         1.029146         0.555067         1.297275
 H        -2.109834         1.930073        -0.530200
 H        -2.813396         0.246663         0.325601
 H        -2.104629         1.600441         2.659323
 H        -1.826449         3.963078         1.176928
 H         1.503218         3.726117         3.352490
 H         0.806163         2.089967         3.232122
 H         1.469199         3.987251         0.797295
 H         2.099940         2.257217         1.248618
 H         0.076843         2.779271        -0.497187
