19
Iteration:   470
 O         0.158253         0.105750         1.143581
 C        -0.584241         1.261214         0.818981
 C        -2.123697         1.192713         0.460031
 C        -1.758650         1.841587         1.701020
 C        -1.157746         3.178048         1.448412
 O        -0.591171         3.782155         2.697037
 C         0.770414         3.144836         2.707274
 C         1.325176         2.909102         1.276838
 C         0.003064         2.715092         0.561335
 H         0.553054        -0.287738         0.383831
 H        -2.521402         1.698643        -0.455453
 H        -2.693791         0.385639         0.623359
 H        -1.931996         1.893933         2.878882
 H        -1.845085         3.932383         0.988724
 H         1.379389         3.762498         3.478949
 H         0.598557         2.139729         3.121816
 H         1.829781         3.751951         0.867039
 H         2.068440         2.113299         1.253507
 H         0.048256         2.957915        -0.461512
