19
Iteration:  4784
 O         0.217430         0.162174         0.848563
 C        -0.586819         1.293380         0.875720
 C        -2.057864         1.197059         0.392958
 C        -1.769322         1.833055         1.769600
 C        -1.202702         3.236793         1.482826
 O        -0.509407         3.804619         2.652131
 C         0.672976         3.086287         2.852417
 C         1.264599         2.884529         1.367874
 C        -0.024894         2.666935         0.543846
 H         0.411348        -0.198190         1.682949
 H        -2.450844         1.767501        -0.500656
 H        -2.267002         0.205159         0.472222
 H        -2.125224         1.307863         2.728700
 H        -1.878847         3.969535         1.014666
 H         1.375394         3.709539         3.299698
 H         0.522587         2.158942         3.481178
 H         1.926350         3.718221         1.133754
 H         1.868841         2.043941         1.479520
 H        -0.009431         2.944443        -0.427211
