19
Iteration:  4749charge 0 multiplicity 1
 O         0.123413         0.081561         0.903412
 C        -0.660537         1.219365         0.789806
 C        -2.025106         1.225883         0.379380
 C        -1.742784         1.798651         1.676973
 C        -1.180029         3.231751         1.471810
 O        -0.494013         3.808018         2.757304
 C         0.716050         3.132791         2.845177
 C         1.224884         3.007619         1.415006
 C         0.009572         2.614763         0.512965
 H         0.745901         0.142830         1.601854
 H        -2.565617         1.474843        -0.509535
 H        -2.360214         0.174194         0.530829
 H        -2.059474         1.404866         2.616361
 H        -1.778761         4.076957         1.108254
 H         1.411457         3.867838         3.432174
 H         0.783346         2.173255         3.426766
 H         1.745782         3.993677         1.059211
 H         2.102406         2.226954         1.377775
 H         0.047292         2.926507        -0.505763
