19
Iteration:  4725charge 0 multiplicity 1
 O         0.063789         0.043249         0.972566
 C        -0.659419         1.212775         0.805266
 C        -2.006080         1.241941         0.299746
 C        -1.665093         1.787974         1.713724
 C        -1.236155         3.160815         1.524197
 O        -0.539583         3.783548         2.659791
 C         0.786752         3.153197         2.815748
 C         1.278350         3.031195         1.366462
 C        -0.033108         2.670948         0.693430
 H         1.033413         0.024871         1.234674
 H        -2.329223         1.870807        -0.493728
 H        -2.576866         0.291041         0.012891
 H        -2.068181         1.539859         2.640443
 H        -1.865357         3.908468         1.005764
 H         1.449117         3.885874         3.486899
 H         0.779551         2.168600         3.351366
 H         1.716927         4.044454         0.927753
 H         2.212176         2.259045         1.267009
 H        -0.077671         3.131542        -0.363786
