19
Iteration:  2901
 O         0.103124        -0.048601         0.749415
 C        -0.584753         1.192560         0.885476
 C        -2.068877         1.260378         0.476330
 C        -1.604798         1.816643         1.809036
 C        -1.189483         3.217132         1.487779
 O        -0.604472         3.889057         2.667329
 C         0.699172         3.227623         2.786409
 C         1.283044         2.951369         1.402037
 C         0.030406         2.626798         0.562561
 H         0.557865        -0.177912         1.647988
 H        -2.166342         1.912987        -0.356169
 H        -2.745986         0.398893         0.431652
 H        -1.901592         1.451939         2.831973
 H        -2.109451         3.794510         1.101383
 H         1.432421         3.870632         3.324601
 H         0.498425         2.294383         3.317607
 H         1.731298         3.908952         1.051552
 H         2.026181         2.108052         1.324355
 H         0.171481         2.944246        -0.459746
