19
Iteration:  4684charge 0 multiplicity 1
 O         0.107116         0.017794         0.841662
 C        -0.648866         1.231599         0.828487
 C        -1.977754         1.226002         0.333289
 C        -1.739478         1.810819         1.719507
 C        -1.135095         3.239421         1.479190
 O        -0.547976         3.772976         2.727985
 C         0.779471         3.233474         2.810970
 C         1.261894         3.004389         1.406057
 C        -0.077407         2.580423         0.654270
 H         0.610246         0.218923         1.641479
 H        -2.297415         1.718585        -0.603246
 H        -2.563912         0.179583         0.422491
 H        -2.203275         1.442878         2.613634
 H        -1.917165         3.916454         1.078130
 H         1.571773         3.919695         3.365757
 H         0.822692         2.362547         3.474947
 H         1.632244         4.044758         1.079225
 H         2.063357         2.274958         1.210111
 H         0.030396         2.816310        -0.375063
