19
Iteration:  4346charge 0 multiplicity 1
 O         0.059588         0.072549         0.796165
 C        -0.594532         1.280413         0.880784
 C        -2.045124         1.177348         0.365608
 C        -1.722316         1.795346         1.756690
 C        -1.115353         3.181180         1.528366
 O        -0.646169         3.794539         2.704185
 C         0.816135         3.226797         2.813270
 C         1.309221         2.985012         1.375262
 C        -0.007556         2.611083         0.603717
 H         0.875559        -0.082353         1.270899
 H        -2.376722         1.728304        -0.508317
 H        -2.338292         0.248888         0.503390
 H        -2.251503         1.349595         2.696994
 H        -1.839726         3.884656         1.014058
 H         1.315094         4.048341         3.301326
 H         0.624469         2.324097         3.541807
 H         1.923491         3.943887         0.978349
 H         2.094785         2.137980         1.605347
 H        -0.082731         2.921466        -0.491810
