19
Iteration:   919
 O         0.121914         0.032447         0.942388
 C        -0.609681         1.228512         0.829474
 C        -2.085236         1.190393         0.427764
 C        -1.680608         1.728299         1.780207
 C        -1.164361         3.221365         1.510620
 O        -0.501227         3.945170         2.573012
 C         0.779041         3.300438         2.810525
 C         1.264274         2.856129         1.386244
 C        -0.036053         2.660263         0.630179
 H        -0.122643        -0.501119         0.198288
 H        -2.661331         1.838496        -0.280584
 H        -2.531480         0.260749         0.544272
 H        -2.014872         1.123834         2.733962
 H        -1.909344         3.942000         1.318567
 H         1.324091         4.110682         3.359247
 H         0.744938         2.385337         3.478433
 H         1.850214         3.576415         0.848736
 H         1.868251         1.856184         1.313545
 H         0.169206         3.013157        -0.452808
