19
Iteration:  2273
 O         0.192517         0.082165         0.942890
 C        -0.602443         1.191511         0.835108
 C        -2.092412         1.211650         0.414248
 C        -1.696308         1.821596         1.745246
 C        -1.178188         3.255632         1.506026
 O        -0.584158         3.696486         2.714858
 C         0.802412         3.375939         2.810531
 C         1.279706         2.939013         1.380720
 C        -0.026489         2.583809         0.521078
 H        -0.412333        -0.521831         0.454624
 H        -2.379046         1.738307        -0.472551
 H        -2.801999         0.306415         0.540112
 H        -2.002038         1.418044         2.668222
 H        -1.798853         3.981347         0.916056
 H         1.348695         4.361807         3.273856
 H         0.873052         2.588728         3.515292
 H         1.955590         3.608746         0.951402
 H         1.857379         1.957207         1.379193
 H         0.047078         3.016482        -0.493042
