19
Iteration:  3854charge 0 multiplicity 1
 O         0.180705         0.114728         0.906876
 C        -0.634436         1.214879         0.795085
 C        -2.075590         1.150350         0.432236
 C        -1.799076         1.853226         1.699896
 C        -1.202974         3.303105         1.453447
 O        -0.485596         3.733426         2.703803
 C         0.767995         3.125306         2.798438
 C         1.256223         2.951279         1.379757
 C        -0.102957         2.668825         0.618748
 H         1.079657         0.468860         1.252256
 H        -2.541760         1.731461        -0.556673
 H        -2.438737         0.230472         0.808172
 H        -1.931143         1.434119         2.650999
 H        -1.756389         4.203025         1.070200
 H         1.468577         3.744885         3.471690
 H         0.897770         2.112634         3.327626
 H         1.785311         3.872620         1.143607
 H         1.936530         2.031492         1.235963
 H         0.112527         2.859196        -0.502285
