19
Iteration:  4273charge 0 multiplicity 1
 O         0.079664         0.089130         0.821115
 C        -0.602416         1.324697         0.792830
 C        -2.038318         1.163326         0.468108
 C        -1.704353         1.781292         1.793372
 C        -1.166730         3.168719         1.501462
 O        -0.581497         3.785789         2.625939
 C         0.727294         3.166746         2.828520
 C         1.263983         2.949244         1.398410
 C         0.048888         2.716707         0.562722
 H         0.699190         0.114850         1.622069
 H        -2.501295         1.845108        -0.325665
 H        -2.179481         0.037615         0.581299
 H        -2.014623         1.317883         2.814434
 H        -1.781866         3.961800         1.100088
 H         1.294744         3.887720         3.363607
 H         0.631223         2.226590         3.477587
 H         1.876283         3.684692         1.126990
 H         1.824584         2.053568         1.203162
 H         0.086530         3.089251        -0.464463
