19
Iteration:  2869
 O         0.028323        -0.052646         0.766898
 C        -0.605037         1.193524         0.792541
 C        -2.073664         1.185594         0.437087
 C        -1.793266         1.782564         1.771052
 C        -1.216303         3.121946         1.504340
 O        -0.501100         3.873587         2.633920
 C         0.828234         3.330634         2.833910
 C         1.278419         3.036963         1.477252
 C         0.061147         2.611206         0.622466
 H         0.756411         0.037293         1.389171
 H        -2.348794         1.860593        -0.322453
 H        -2.502330         0.223502         0.344244
 H        -2.070466         1.346838         2.747211
 H        -2.025553         3.884670         1.145740
 H         1.526788         4.050458         3.301193
 H         0.700292         2.544536         3.578782
 H         1.597845         3.960853         1.012606
 H         2.126052         2.323956         1.293061
 H         0.295571         2.942102        -0.367387
