19
Iteration:  1971charge 0 multiplicity 1
 O         0.133463         0.021454         0.952462
 C        -0.646648         1.189440         0.875589
 C        -2.064280         1.165621         0.485276
 C        -1.699975         1.870227         1.793677
 C        -1.098736         3.247135         1.418076
 O        -0.513974         3.828643         2.643088
 C         0.681009         3.166582         2.821460
 C         1.277328         2.995747         1.381517
 C        -0.013086         2.663873         0.554240
 H         0.136602        -0.431259         0.033678
 H        -2.609340         1.664418        -0.348546
 H        -2.548717         0.130055         0.609453
 H        -2.159100         1.483526         2.757616
 H        -1.789318         4.035868         0.925376
 H         1.452276         3.862899         3.389217
 H         0.801186         2.145622         3.281113
 H         1.596460         4.033978         1.057526
 H         2.091676         2.284195         1.109493
 H         0.142849         3.071401        -0.487180
