19
Iteration:  3833
 O         0.102791         0.110799         0.904261
 C        -0.584580         1.262432         0.852510
 C        -2.050306         1.177599         0.388902
 C        -1.718484         1.798897         1.766332
 C        -1.149394         3.214639         1.595294
 O        -0.567360         3.773190         2.690200
 C         0.720259         3.153603         2.796897
 C         1.247496         2.893815         1.288434
 C         0.000317         2.668098         0.543051
 H         0.989157         0.352906         1.257253
 H        -2.287508         1.906476        -0.492934
 H        -2.343045         0.158827         0.366877
 H        -2.223945         1.817308         2.662347
 H        -1.818571         4.023966         1.245201
 H         1.446794         3.826667         3.345337
 H         0.732388         2.216399         3.473826
 H         1.690981         3.834628         0.913749
 H         2.071972         2.073214         1.311423
 H        -0.163223         3.075980        -0.565331
