19
Iteration:  2281charge 0 multiplicity 1
 O         0.152769         0.055597         0.942493
 C        -0.613370         1.255010         0.818586
 C        -2.111709         1.192840         0.376493
 C        -1.629487         1.839396         1.752540
 C        -1.142583         3.222671         1.544978
 O        -0.633620         3.733391         2.750245
 C         0.804274         3.401108         2.813110
 C         1.265210         2.897133         1.364566
 C        -0.017088         2.625719         0.492525
 H        -0.243447        -0.734768         0.470214
 H        -2.488372         1.640667        -0.470795
 H        -2.466699         0.139717         0.512081
 H        -2.057839         1.421761         2.627658
 H        -1.863581         3.965158         1.049380
 H         1.366908         4.274304         3.206409
 H         1.074325         2.686767         3.631647
 H         1.991592         3.569634         0.946566
 H         1.775898         1.887529         1.368638
 H         0.192933         2.788274        -0.566335
