19
Iteration:  1501
 O         0.304440         0.091329         0.940197
 C        -0.628940         1.239017         0.812863
 C        -2.081337         1.185223         0.444773
 C        -1.803547         1.887847         1.823492
 C        -1.203392         3.272328         1.496455
 O        -0.582620         3.725403         2.649880
 C         0.821252         3.256146         2.737883
 C         1.302659         2.892276         1.377215
 C        -0.043010         2.633271         0.546626
 H        -0.299246        -0.739760         1.033569
 H        -2.585856         1.728647        -0.383250
 H        -2.530642         0.139759         0.344967
 H        -2.322824         1.742937         2.729955
 H        -1.696556         4.148821         1.101939
 H         1.265901         4.071228         3.411112
 H         0.722146         2.267140         3.428688
 H         1.946696         3.715117         0.938915
 H         1.823692         1.998583         1.425127
 H         0.024011         2.933717        -0.537636
