19
Iteration:  3773
 O         0.073071        -0.008784         0.781437
 C        -0.604125         1.228305         0.838390
 C        -2.048683         1.200274         0.421874
 C        -1.685676         1.743088         1.728394
 C        -1.159380         3.249046         1.534191
 O        -0.607071         3.814382         2.636525
 C         0.885031         3.266677         2.836964
 C         1.225880         3.009233         1.394076
 C        -0.018274         2.643969         0.642625
 H         0.300954        -0.416140         1.705017
 H        -2.379841         1.942647        -0.304311
 H        -2.645843         0.173945         0.336007
 H        -1.969235         1.469987         2.838475
 H        -1.801259         3.986125         1.000858
 H         1.422874         3.964440         3.449567
 H         0.892571         2.250940         3.187115
 H         1.753647         3.881538         1.004145
 H         1.944440         2.257280         1.417784
 H         0.136060         2.976225        -0.282539
