19
Iteration:  4063charge 0 multiplicity 1
 O         0.154714         0.034181         0.766322
 C        -0.501036         1.246870         0.826977
 C        -2.088161         1.176738         0.494807
 C        -1.697278         1.851317         1.756838
 C        -1.165675         3.256563         1.462881
 O        -0.607707         3.836618         2.661139
 C         0.731338         3.120570         2.813216
 C         1.255723         2.887311         1.383686
 C        -0.031305         2.692375         0.629058
 H         0.720861         0.014091         1.514694
 H        -2.436554         1.913692        -0.275686
 H        -2.594020         0.104859         0.634071
 H        -1.962368         1.688236         2.768262
 H        -1.886405         4.031128         1.132086
 H         1.366152         3.719272         3.483485
 H         0.489107         2.233776         3.396674
 H         1.571332         3.830065         1.044329
 H         2.129738         2.229282         1.195277
 H         0.057014         2.984648        -0.345676
