19
Iteration:  1029
 O         0.238273         0.138473         1.110122
 C        -0.655243         1.214889         0.885900
 C        -2.058632         1.258741         0.353048
 C        -1.752349         1.859766         1.701954
 C        -1.145127         3.245706         1.513367
 O        -0.515569         3.741505         2.690775
 C         0.822209         3.182317         2.790522
 C         1.230549         2.946353         1.275336
 C        -0.083880         2.571973         0.536183
 H        -0.172788        -0.557061         0.571226
 H        -2.336619         1.831378        -0.507441
 H        -2.672425         0.342114         0.502380
 H        -2.332533         1.489377         2.546911
 H        -1.844075         3.938060         1.109232
 H         1.369874         4.051685         3.219859
 H         1.109557         2.233034         3.336363
 H         1.602313         3.789436         0.732089
 H         1.898564         2.009393         1.307097
 H        -0.215200         2.903939        -0.490151
