19
Iteration:   306
 O         0.215872         0.093926         0.985314
 C        -0.621183         1.219256         0.894772
 C        -2.088116         1.254904         0.446269
 C        -1.662976         1.727858         1.822534
 C        -1.216611         3.234417         1.523497
 O        -0.522563         3.973979         2.491098
 C         0.687659         3.197167         2.778036
 C         1.299456         2.796844         1.357712
 C        -0.016517         2.616701         0.650302
 H         0.264488        -0.387470         0.085287
 H        -2.446414         1.973344        -0.254698
 H        -2.720005         0.343547         0.390868
 H        -2.224667         1.530528         2.863509
 H        -1.866897         3.809391         0.860997
 H         1.445236         3.762727         3.439362
 H         0.327749         2.310825         3.246014
 H         1.892782         3.575125         0.998448
 H         1.973495         1.968650         1.326012
 H        -0.060684         2.933341        -0.444359
