19
Iteration:  4787charge 0 multiplicity 1
 O         0.216995         0.167746         0.845684
 C        -0.588717         1.327962         0.856435
 C        -2.054449         1.202173         0.382139
 C        -1.736966         1.843568         1.763201
 C        -1.212885         3.201802         1.485273
 O        -0.518973         3.820939         2.651504
 C         0.706376         3.081442         2.842222
 C         1.239254         2.884623         1.397402
 C        -0.025972         2.637461         0.570198
 H         0.388207        -0.158821         1.790670
 H        -2.414814         1.806573        -0.482574
 H        -2.340275         0.091755         0.416758
 H        -2.125251         1.430571         2.761029
 H        -1.988508         3.919244         1.095102
 H         1.399348         3.719326         3.374980
 H         0.438799         2.167503         3.417624
 H         1.923012         3.614653         1.066767
 H         1.953697         2.040934         1.392361
 H        -0.067716         2.874197        -0.550825
