19
Iteration:  1313
 O         0.204693         0.195280         1.088347
 C        -0.715609         1.232929         0.877379
 C        -2.009889         1.149298         0.415303
 C        -1.761026         1.868053         1.688507
 C        -1.153123         3.245442         1.475316
 O        -0.491007         3.723992         2.621865
 C         0.826264         3.101473         2.801751
 C         1.227034         3.005678         1.331420
 C        -0.086421         2.634497         0.573511
 H        -0.012653        -0.486487         0.398801
 H        -2.378524         1.719437        -0.489223
 H        -2.506492         0.142108         0.593197
 H        -2.217402         1.650129         2.717956
 H        -1.852294         3.977778         1.063500
 H         1.474775         3.745652         3.415012
 H         0.870097         2.137634         3.280426
 H         1.586712         3.885904         0.863718
 H         1.958406         2.189288         1.163199
 H        -0.011797         2.951145        -0.513113
