19
Iteration:  4934charge 0 multiplicity 1
 O         0.171296         0.077516         0.884819
 C        -0.604309         1.249619         0.796994
 C        -2.059117         1.217454         0.357848
 C        -1.691397         1.788857         1.741741
 C        -1.174763         3.209027         1.517702
 O        -0.547333         3.792130         2.666307
 C         0.732734         3.195274         2.879164
 C         1.208354         2.882970         1.358367
 C        -0.023748         2.719519         0.610460
 H         0.562446         0.042236         1.738391
 H        -2.519795         1.694256        -0.522172
 H        -2.532205         0.288669         0.397571
 H        -2.242341         1.477056         2.607472
 H        -1.818344         3.966938         1.069641
 H         1.491399         3.853590         3.421040
 H         0.771089         2.199638         3.344141
 H         1.859185         3.761086         1.082445
 H         1.871461         1.957355         1.179918
 H         0.170952         3.157420        -0.480501
