19
Iteration:  2671
 O         0.094010         0.030430         0.837915
 C        -0.609305         1.218410         0.771980
 C        -2.114983         1.240237         0.405381
 C        -1.700043         1.775062         1.780159
 C        -1.099263         3.150001         1.548090
 O        -0.533017         3.831908         2.660637
 C         0.761170         3.354806         2.853440
 C         1.241169         2.899184         1.347137
 C         0.019237         2.617387         0.602112
 H         0.479580        -0.115741         1.739310
 H        -2.532353         1.888966        -0.281153
 H        -2.407242         0.188835         0.276528
 H        -2.147322         1.309215         2.714225
 H        -1.924786         3.828805         1.160777
 H         1.397588         4.251972         3.236942
 H         0.671500         2.399419         3.473319
 H         1.732990         3.786616         0.927751
 H         1.972184         2.108936         1.327745
 H         0.057751         2.958169        -0.451407
