19
Iteration:    68
 O         0.034953        -0.117871         0.953643
 C        -0.621401         1.172210         0.824971
 C        -2.143926         1.223385         0.412930
 C        -1.666617         1.756661         1.742072
 C        -1.111149         3.203343         1.497519
 O        -0.571091         3.878061         2.651645
 C         0.752792         3.435444         2.775131
 C         1.388869         2.962164         1.387232
 C         0.041451         2.616640         0.639797
 H         0.599668        -0.109191         0.106014
 H        -2.701422         1.806272        -0.396257
 H        -2.537349         0.258014         0.347708
 H        -1.978523         1.415972         2.680253
 H        -1.750185         3.894664         0.938667
 H         1.091889         4.201583         3.428895
 H         0.613336         2.649061         3.521716
 H         1.939593         3.768135         0.827267
 H         1.879796         2.017790         1.661934
 H        -0.007655         2.956839        -0.345049
