19
Iteration:  4606
 O         0.172281         0.058659         0.805596
 C        -0.610286         1.250785         0.837833
 C        -2.031882         1.180276         0.381068
 C        -1.726801         1.736118         1.782738
 C        -1.171931         3.303968         1.566258
 O        -0.561871         3.922373         2.608791
 C         0.755111         3.128507         2.819342
 C         1.244602         2.895471         1.418607
 C        -0.030360         2.594505         0.662572
 H         0.892338         0.289935         1.354028
 H        -2.452059         1.821764        -0.491671
 H        -2.638567         0.225137         0.515244
 H        -2.284018         1.226981         2.500665
 H        -1.777125         3.984351         0.911618
 H         1.297570         3.912057         3.544443
 H         0.549377         2.110201         3.134107
 H         1.681027         3.872361         1.007321
 H         2.023196         2.093285         1.323322
 H         0.052262         3.156658        -0.247019
