19
Iteration:  3770
 O         0.068069         0.003009         0.781541
 C        -0.580662         1.209838         0.822932
 C        -2.056827         1.208061         0.437990
 C        -1.698354         1.763727         1.738215
 C        -1.183760         3.219539         1.537862
 O        -0.590047         3.805799         2.652577
 C         0.872685         3.274125         2.793326
 C         1.237542         3.007618         1.407513
 C        -0.007126         2.651845         0.648657
 H         0.304656        -0.297471         1.653855
 H        -2.439098         1.829717        -0.290743
 H        -2.501813         0.273408         0.270762
 H        -2.029754         1.618623         2.768614
 H        -1.880196         3.897324         1.058585
 H         1.299975         3.988762         3.447214
 H         0.856961         2.276556         3.307813
 H         1.834747         3.894118         1.096736
 H         1.947688         2.124389         1.366477
 H         0.204742         2.900156        -0.464250
