19
Iteration:  1207charge 0 multiplicity 1
 O         0.043237        -0.039015         0.946443
 C        -0.629834         1.220161         0.752588
 C        -2.069028         1.183636         0.370553
 C        -1.686755         1.768469         1.788088
 C        -1.194276         3.229103         1.527641
 O        -0.580001         3.862074         2.673017
 C         0.904618         3.384691         2.876343
 C         1.267637         2.888175         1.390131
 C        -0.026085         2.617701         0.586479
 H         0.616633        -0.045320         0.121990
 H        -2.507909         1.766012        -0.434054
 H        -2.423795         0.203333         0.481484
 H        -1.936981         1.375458         2.867019
 H        -1.890816         3.890416         1.060278
 H         1.493974         4.313330         3.044240
 H         0.888598         2.522247         3.470585
 H         1.667736         3.802034         0.806013
 H         1.983662         2.099522         1.415999
 H         0.146692         2.862563        -0.432386
