19
Iteration:  2559charge 0 multiplicity 1
 O         0.099372         0.097660         1.051493
 C        -0.618066         1.279920         0.823820
 C        -2.088612         1.186340         0.415902
 C        -1.643402         1.792357         1.787315
 C        -1.178016         3.127360         1.532070
 O        -0.471995         3.826584         2.602974
 C         0.771561         3.202416         2.793814
 C         1.221570         2.915755         1.324678
 C        -0.085167         2.703439         0.503297
 H         0.859697         0.010226         0.513788
 H        -2.468376         1.849292        -0.292686
 H        -2.451966         0.217725         0.518034
 H        -1.895230         1.352561         2.678065
 H        -2.086395         3.734739         1.136578
 H         1.512735         3.975256         3.349006
 H         0.576612         2.164707         3.364122
 H         2.023061         3.655348         1.042102
 H         1.819595         2.010366         1.331476
 H        -0.236127         3.218328        -0.473184
