19
Iteration:  2398charge 0 multiplicity 1
 O         0.103305         0.041113         0.830321
 C        -0.596979         1.220048         0.776392
 C        -2.124106         1.087737         0.526568
 C        -1.609637         1.824993         1.797678
 C        -1.139593         3.259285         1.455153
 O        -0.480458         3.872119         2.609597
 C         0.677943         3.152121         2.843350
 C         1.263726         2.982441         1.436199
 C        -0.024021         2.688601         0.516142
 H         0.625402         0.092469         1.641748
 H        -2.690026         1.659902        -0.307795
 H        -2.608511         0.038244         0.685468
 H        -1.989378         1.652697         2.754319
 H        -1.908576         3.873661         1.024933
 H         1.312624         3.702297         3.591354
 H         0.476163         2.199499         3.320188
 H         1.638075         3.985631         1.027926
 H         2.069593         2.233652         1.383119
 H        -0.003775         2.834280        -0.581043
