19
Iteration:   876charge 0 multiplicity 1
 O         0.263147         0.208089         0.888822
 C        -0.622975         1.266319         0.881413
 C        -2.141060         1.149309         0.609606
 C        -1.662418         1.918219         1.827100
 C        -1.199722         3.258319         1.386530
 O        -0.488552         3.859253         2.526985
 C         0.665059         3.027546         2.840092
 C         1.198149         2.856589         1.420188
 C         0.033663         2.625457         0.522285
 H        -0.205033        -0.487213         0.496288
 H        -2.648517         1.607861        -0.248723
 H        -2.413891         0.177280         0.673747
 H        -2.095361         1.840102         2.942524
 H        -1.859207         3.899421         0.859476
 H         1.441392         3.558401         3.437209
 H         0.486435         2.164170         3.391146
 H         1.807365         3.643804         1.152276
 H         1.928038         2.031915         1.222815
 H         0.176443         2.742441        -0.621226
