19
Iteration:  2557
 O         0.091109         0.095818         1.058569
 C        -0.632428         1.262169         0.820836
 C        -2.060452         1.185736         0.412007
 C        -1.663661         1.782428         1.792002
 C        -1.172042         3.120570         1.528965
 O        -0.476547         3.843628         2.615011
 C         0.787764         3.195015         2.785017
 C         1.219839         2.939846         1.338058
 C        -0.081274         2.707557         0.491020
 H         0.885006        -0.031898         0.528454
 H        -2.500020         1.888221        -0.329677
 H        -2.432123         0.263106         0.523989
 H        -1.946235         1.289250         2.710953
 H        -2.074645         3.729570         1.135781
 H         1.507100         3.853641         3.274079
 H         0.633956         2.229625         3.286924
 H         1.996532         3.669008         1.054461
 H         1.801281         1.976012         1.279491
 H        -0.226881         3.250707        -0.445727
