19
Iteration:  2205charge 0 multiplicity 1
 O         0.187852         0.081323         1.088790
 C        -0.541339         1.330713         0.821455
 C        -2.029090         1.217026         0.461851
 C        -1.668304         1.826218         1.729879
 C        -1.190867         3.237401         1.491087
 O        -0.565983         3.808567         2.658333
 C         0.718210         3.061477         2.840406
 C         1.248779         2.946318         1.260416
 C        -0.060202         2.703640         0.480298
 H        -0.081085        -0.577516         0.487947
 H        -2.493371         1.729229        -0.361365
 H        -2.526883         0.233519         0.649746
 H        -2.055817         1.263829         2.635223
 H        -2.026325         3.951010         1.163379
 H         1.529193         3.669425         3.475573
 H         0.633604         2.063947         3.232047
 H         1.715048         3.838984         0.921472
 H         2.046895         2.156816         1.215272
 H        -0.159889         3.031814        -0.584723
