19
Iteration:  4265charge 0 multiplicity 1
 O         0.097883         0.112174         0.832156
 C        -0.556101         1.303808         0.789179
 C        -2.065791         1.153519         0.459546
 C        -1.692153         1.796213         1.803751
 C        -1.126303         3.198096         1.470401
 O        -0.561017         3.766343         2.655850
 C         0.698464         3.169755         2.820563
 C         1.280434         2.887656         1.366987
 C        -0.007108         2.746827         0.587946
 H         0.754108         0.032260         1.563706
 H        -2.592661         1.644600        -0.376938
 H        -2.502462         0.029497         0.558756
 H        -2.183052         1.477851         2.658088
 H        -1.949039         3.823148         1.124199
 H         1.300623         3.942997         3.429733
 H         0.480877         2.342672         3.614972
 H         1.835097         3.901720         1.120041
 H         1.955035         2.100351         1.108275
 H         0.185629         3.043903        -0.391081
