19
Iteration:   544
 O         0.083683         0.105833         1.072303
 C        -0.624397         1.295062         0.796208
 C        -2.078349         1.168385         0.490511
 C        -1.657362         1.871245         1.747175
 C        -1.156909         3.205516         1.432887
 O        -0.596979         3.729213         2.631688
 C         0.834548         3.240698         2.787426
 C         1.267487         2.885167         1.387644
 C         0.048492         2.614144         0.546176
 H        -0.009946        -0.295379         0.131352
 H        -2.493689         1.973677        -0.230958
 H        -2.496564         0.230219         0.423652
 H        -2.001144         1.501965         2.827765
 H        -1.929365         3.844768         0.969279
 H         1.253635         4.212922         3.097201
 H         0.844682         2.388442         3.492251
 H         1.641024         3.844499         0.824540
 H         2.032592         2.118475         1.293063
 H         0.022903         2.919376        -0.531934
