19
Iteration:  3000charge 0 multiplicity 1
 O         0.044793         0.021143         0.955509
 C        -0.610680         1.234164         0.835352
 C        -2.022518         1.208806         0.340706
 C        -1.787397         1.814053         1.676757
 C        -1.137883         3.138651         1.602960
 O        -0.473917         3.813563         2.674067
 C         0.755516         3.170370         2.752696
 C         1.283714         3.123630         1.318580
 C        -0.037294         2.631953         0.622514
 H         0.607461        -0.056213         1.779610
 H        -2.431265         1.551376        -0.508085
 H        -2.354769         0.098156         0.358967
 H        -2.096340         1.487813         2.720711
 H        -1.801524         3.903038         1.249834
 H         1.398304         3.678522         3.452006
 H         0.691213         2.162423         3.174180
 H         1.609348         4.027700         0.893892
 H         2.148542         2.412498         1.201300
 H         0.021776         2.985622        -0.386666
