19
Iteration:  3205
 O         0.127138         0.043996         0.889238
 C        -0.663473         1.218122         0.750272
 C        -2.038453         1.227430         0.300729
 C        -1.744826         1.802453         1.788818
 C        -1.126092         3.141021         1.589007
 O        -0.559842         3.795161         2.679671
 C         0.815764         3.415961         2.799820
 C         1.205947         2.862703         1.418031
 C        -0.039851         2.592959         0.640201
 H         1.054913         0.290435         1.129774
 H        -2.491465         1.959266        -0.397411
 H        -2.461143         0.182869         0.152382
 H        -2.231538         1.488810         2.649770
 H        -1.842113         3.994286         1.126411
 H         1.435654         4.099704         3.262985
 H         1.046635         2.544633         3.360894
 H         1.857542         3.497650         0.886623
 H         1.853863         1.928083         1.498854
 H         0.037608         2.921137        -0.407775
