19
Iteration:   981charge 0 multiplicity 1
 O        -0.069424        -0.021821         1.030037
 C        -0.694746         1.169373         0.771089
 C        -2.022844         1.177935         0.330463
 C        -1.761174         1.711101         1.708034
 C        -1.079791         3.191484         1.561420
 O        -0.494824         3.739209         2.745153
 C         0.905902         3.510965         2.774361
 C         1.284113         2.995560         1.340419
 C         0.011196         2.628809         0.610088
 H         0.592356        -0.157848         0.355972
 H        -2.419354         1.872437        -0.522263
 H        -2.540513         0.201125         0.455483
 H        -2.284609         1.588017         2.657737
 H        -1.943622         3.782301         1.108088
 H         1.412596         4.436239         3.032652
 H         1.105463         2.720827         3.500891
 H         1.613100         3.943982         0.812186
 H         1.934156         2.108929         1.280356
 H         0.094373         2.859279        -0.416949
