19
Iteration:  4406charge 0 multiplicity 1
 O         0.190182         0.110899         0.869132
 C        -0.588625         1.275326         0.853622
 C        -2.011257         1.221388         0.352995
 C        -1.765923         1.765051         1.791608
 C        -1.209473         3.245783         1.586706
 O        -0.537335         3.826467         2.600143
 C         0.714394         3.087187         2.783746
 C         1.254218         2.983569         1.361297
 C        -0.037793         2.643256         0.642823
 H         0.615940        -0.070693         1.781438
 H        -2.334499         1.923876        -0.493584
 H        -2.394425         0.058125         0.227398
 H        -2.304181         1.333100         2.628748
 H        -1.853680         4.028585         1.213021
 H         1.485853         3.682496         3.347639
 H         0.707501         2.142420         3.286891
 H         1.765520         3.766569         0.947188
 H         1.902389         2.087742         1.296295
 H        -0.051209         2.861563        -0.414801
