19
Iteration:  1443charge 0 multiplicity 1
 O         0.219625         0.098141         0.878551
 C        -0.637107         1.235953         0.806847
 C        -2.068877         1.130180         0.441476
 C        -1.632196         1.768873         1.782216
 C        -1.191836         3.211476         1.629667
 O        -0.486839         4.012091         2.540813
 C         0.671350         3.174242         2.736794
 C         1.282583         2.862661         1.418039
 C        -0.052430         2.651780         0.630627
 H        -0.361616        -0.625727         0.809459
 H        -2.273863         1.673847        -0.474763
 H        -2.574333         0.347281         0.829159
 H        -2.055525         1.372671         2.779821
 H        -1.847798         3.935273         1.027030
 H         1.300362         3.714339         3.345938
 H         0.330001         2.171375         3.398922
 H         1.856375         3.747368         1.145828
 H         1.973006         1.903269         1.300260
 H        -0.266328         3.051206        -0.417487
