19
Iteration:  2633charge 0 multiplicity 1
 O         0.149986         0.059498         0.755321
 C        -0.610320         1.201770         0.838695
 C        -2.059623         1.235899         0.495733
 C        -1.634081         1.733465         1.817018
 C        -1.094426         3.156542         1.574717
 O        -0.536425         3.982733         2.590860
 C         0.663406         3.268785         2.828070
 C         1.231600         2.911541         1.394803
 C         0.007168         2.571135         0.570652
 H        -0.277298        -0.655549         1.321852
 H        -2.495168         1.944301        -0.379396
 H        -2.401495         0.235585         0.484812
 H        -2.022922         1.536609         2.795527
 H        -1.912818         3.806368         1.142546
 H         1.282027         3.786159         3.539383
 H         0.481074         2.360764         3.298842
 H         1.760396         3.775236         0.911318
 H         1.966329         2.035400         1.339264
 H         0.016912         3.021455        -0.430378
