19
Iteration:  4139charge 0 multiplicity 1
 O         0.132167         0.064980         0.853942
 C        -0.644326         1.266095         0.865137
 C        -1.979266         1.254270         0.350700
 C        -1.748511         1.767081         1.768829
 C        -1.210010         3.215178         1.558724
 O        -0.584788         3.763569         2.699414
 C         0.839472         3.178488         2.744548
 C         1.286891         2.969723         1.299116
 C        -0.019280         2.626098         0.678965
 H         0.488980         0.123309         1.813964
 H        -2.390223         1.770873        -0.626962
 H        -2.550541         0.245678         0.376438
 H        -2.275073         1.380694         2.653613
 H        -1.927285         3.950931         1.028354
 H         1.260222         4.074181         3.361853
 H         0.778228         2.237183         3.402535
 H         1.644058         3.856345         0.911890
 H         2.060827         2.185335         1.233761
 H         0.105205         3.056696        -0.397496
