19
Iteration:  3670charge 0 multiplicity 1
 O         0.140805         0.045792         0.879568
 C        -0.538922         1.222021         0.773009
 C        -2.094144         1.193814         0.494694
 C        -1.701915         1.896889         1.732012
 C        -1.167564         3.230432         1.505715
 O        -0.555139         3.787737         2.625127
 C         0.701226         3.054410         2.860399
 C         1.250240         3.025918         1.303598
 C         0.010012         2.664813         0.575062
 H         0.468773         0.125587         1.746518
 H        -2.372733         1.725221        -0.399547
 H        -2.587737         0.273023         0.623193
 H        -1.907827         1.527335         2.728006
 H        -1.916756         4.018625         1.277154
 H         1.350187         3.612367         3.596812
 H         0.582450         2.101472         3.399076
 H         1.608889         4.074082         1.114032
 H         2.061564         2.146947         1.215491
 H         0.086747         3.062108        -0.513813
