19
Iteration:  2583
 O         0.233500         0.159699         0.935918
 C        -0.677806         1.221058         0.760850
 C        -2.131596         1.170311         0.527663
 C        -1.699675         1.820722         1.818741
 C        -1.161001         3.275413         1.445845
 O        -0.583089         3.876209         2.671504
 C         0.766487         3.197452         2.746905
 C         1.243612         2.827722         1.415074
 C         0.005231         2.573106         0.554692
 H         0.576753        -0.143352         0.063931
 H        -2.656374         1.788258        -0.127768
 H        -2.544230         0.115697         0.725692
 H        -1.937481         1.341769         2.765004
 H        -1.899062         3.948767         0.961726
 H         1.561592         3.968774         3.192655
 H         0.619643         2.199968         3.390907
 H         1.853408         3.668804         1.004702
 H         1.916959         1.992435         1.336240
 H         0.209259         2.986366        -0.458061
