19
Iteration:  1325charge 0 multiplicity 1
 O         0.230726         0.132861         1.116285
 C        -0.571773         1.236632         0.867613
 C        -2.133155         1.245373         0.373256
 C        -1.788351         1.847144         1.742449
 C        -1.225367         3.246837         1.515994
 O        -0.527662         3.737185         2.666702
 C         0.803937         3.139921         2.735085
 C         1.299790         2.922861         1.250070
 C        -0.038496         2.610154         0.600155
 H         0.359301        -0.565024         0.388967
 H        -2.348751         1.932430        -0.548646
 H        -2.617030         0.258312         0.323491
 H        -2.392440         1.473334         2.681963
 H        -1.847330         4.064559         1.197481
 H         1.380153         3.984020         3.224516
 H         0.711003         2.305899         3.362830
 H         1.572492         3.944739         0.990081
 H         2.147587         2.274180         1.117327
 H        -0.116211         2.883863        -0.463536
