19
Iteration:  1566
 O         0.075325        -0.025644         1.128827
 C        -0.554971         1.291879         0.939303
 C        -2.047834         1.287903         0.348603
 C        -1.644596         1.823626         1.729139
 C        -1.148268         3.206592         1.499924
 O        -0.581160         3.687935         2.660735
 C         0.798918         3.197417         2.753357
 C         1.233837         3.070327         1.268784
 C        -0.029328         2.646899         0.580342
 H         0.323890        -0.237778         0.218095
 H        -2.437842         1.950619        -0.381163
 H        -2.546114         0.274712         0.480981
 H        -2.248233         1.472054         2.537816
 H        -1.866595         3.829414         0.928907
 H         1.504375         3.847776         3.311610
 H         0.893989         2.231203         3.231095
 H         1.460731         4.086804         0.815549
 H         1.953263         2.281451         1.146500
 H         0.015112         2.832312        -0.534323
