19
Iteration:   484
 O         0.155058         0.137583         1.125358
 C        -0.682580         1.242473         0.864317
 C        -2.060124         1.192058         0.411162
 C        -1.734147         1.828771         1.782762
 C        -1.157606         3.268481         1.501453
 O        -0.471463         3.799679         2.574250
 C         0.743034         3.110817         2.762272
 C         1.253378         2.959988         1.334000
 C        -0.040910         2.587826         0.534660
 H         0.778151         0.070482         0.341886
 H        -2.381885         1.889207        -0.347026
 H        -2.444398         0.140576         0.389770
 H        -2.214561         1.369161         2.546124
 H        -1.867087         4.010356         1.097404
 H         1.391613         3.682272         3.415211
 H         0.648899         2.140919         3.288479
 H         1.689369         3.841024         0.924963
 H         1.935472         2.089069         1.247561
 H        -0.073380         2.953475        -0.569559
