19
Iteration:  4477charge 0 multiplicity 1
 O         0.103636         0.084298         0.916253
 C        -0.630999         1.272454         0.807037
 C        -2.018787         1.159296         0.395968
 C        -1.762540         1.826877         1.747718
 C        -1.113613         3.218325         1.505396
 O        -0.553003         3.691796         2.662563
 C         0.790810         3.164774         2.807874
 C         1.227304         3.012588         1.376773
 C        -0.063910         2.677075         0.565166
 H         0.903589         0.274519         1.529397
 H        -2.413127         1.834683        -0.470934
 H        -2.245695         0.108327         0.394340
 H        -2.261307         1.512494         2.608534
 H        -1.756964         4.061491         1.077482
 H         1.328833         3.854875         3.511728
 H         0.788285         2.251636         3.375904
 H         1.910318         3.916260         1.131827
 H         2.044231         2.200460         1.397706
 H        -0.003076         3.050228        -0.486163
