19
Iteration:   446charge 0 multiplicity 1
 O         0.107565         0.139325         1.116792
 C        -0.634328         1.239612         0.809106
 C        -2.021313         1.117026         0.438850
 C        -1.709080         1.871034         1.687301
 C        -1.127550         3.278560         1.463101
 O        -0.498780         3.693554         2.642384
 C         0.798224         3.235848         2.802857
 C         1.201445         2.927825         1.351348
 C        -0.048999         2.658179         0.468736
 H        -0.201024        -0.628084         0.529268
 H        -2.513875         1.632251        -0.377986
 H        -2.536418         0.134186         0.522699
 H        -1.981345         1.555622         2.837390
 H        -1.755353         4.175439         1.280067
 H         1.385192         3.992590         3.419475
 H         0.711583         2.294424         3.409449
 H         1.724034         3.896141         1.013979
 H         2.020961         2.229468         1.295036
 H         0.159182         2.920922        -0.522391
