19
Iteration:  4447charge 0 multiplicity 1
 O         0.154741         0.048213         0.946877
 C        -0.677506         1.264070         0.786243
 C        -2.076575         1.180789         0.391528
 C        -1.701831         1.836298         1.669721
 C        -1.138726         3.291926         1.554412
 O        -0.575708         3.756995         2.708821
 C         0.798264         3.108101         2.748875
 C         1.236788         3.018930         1.385907
 C        -0.015512         2.640420         0.560582
 H         0.943504         0.291960         1.422238
 H        -2.565048         1.543933        -0.369596
 H        -2.278957         0.079010         0.608328
 H        -2.056134         1.408464         2.539291
 H        -1.760174         4.018511         1.085747
 H         1.223679         3.737716         3.423672
 H         0.523041         2.117632         3.309232
 H         1.576039         4.029537         1.263396
 H         2.169886         2.276831         1.350740
 H         0.108522         2.990246        -0.488791
