19
Iteration:  3048
 O         0.068292         0.056807         0.943493
 C        -0.615293         1.220504         0.835942
 C        -1.971440         1.283283         0.374465
 C        -1.773506         1.766479         1.746188
 C        -1.124673         3.185812         1.555967
 O        -0.587240         3.658706         2.727871
 C         0.828926         3.313522         2.709446
 C         1.287832         2.998212         1.291598
 C        -0.008374         2.613038         0.627744
 H         0.205630        -0.013624         1.880428
 H        -2.386548         1.916025        -0.483746
 H        -2.607500         0.485618         0.358084
 H        -2.447504         1.350141         2.449824
 H        -1.746727         4.095662         1.054429
 H         1.393284         4.107637         3.257909
 H         0.937689         2.404387         3.295745
 H         1.733641         3.887844         0.716328
 H         2.081618         2.252725         1.307165
 H        -0.090106         2.950788        -0.465816
