19
Iteration:  4830charge 0 multiplicity 1
 O         0.101137         0.023117         0.883866
 C        -0.584569         1.206429         0.778175
 C        -2.053768         1.230156         0.332538
 C        -1.697248         1.780613         1.713134
 C        -1.194999         3.201258         1.556637
 O        -0.539779         3.842409         2.667611
 C         0.777116         3.191964         2.868638
 C         1.234640         2.958150         1.422662
 C        -0.032215         2.680169         0.545959
 H         0.749317         0.066777         1.607044
 H        -2.470722         1.955047        -0.364410
 H        -2.336028         0.088497         0.366002
 H        -2.136361         1.583785         2.781027
 H        -2.001388         3.914645         1.235478
 H         1.384430         3.807526         3.518035
 H         0.670295         2.154996         3.260150
 H         1.722683         3.841793         1.067218
 H         2.009003         2.199595         1.320997
 H         0.287044         3.017577        -0.428505
