19
Iteration:  3874charge 0 multiplicity 1
 O         0.178921         0.148548         0.909467
 C        -0.691804         1.293458         0.795972
 C        -2.109544         1.078685         0.424713
 C        -1.752522         1.898755         1.762546
 C        -1.101832         3.226509         1.523283
 O        -0.513239         3.773812         2.694558
 C         0.770822         3.089539         2.817863
 C         1.246009         2.944966         1.352935
 C        -0.014990         2.653056         0.506769
 H         0.894312         0.236945         1.528400
 H        -2.554434         1.780162        -0.450874
 H        -2.413511         0.104263         0.641636
 H        -2.439887         1.404558         2.472493
 H        -1.902587         3.869651         1.055198
 H         1.461067         3.659546         3.557718
 H         0.646829         2.100718         3.235684
 H         1.571226         3.970588         1.135127
 H         2.076455         2.280526         1.165750
 H         0.108016         3.081035        -0.411091
