19
Iteration:  3856
 O         0.188973         0.114878         0.905742
 C        -0.629066         1.207141         0.801206
 C        -2.101990         1.144643         0.422987
 C        -1.800014         1.842501         1.689433
 C        -1.191025         3.310035         1.460197
 O        -0.481260         3.734515         2.693065
 C         0.759828         3.116790         2.810428
 C         1.263252         2.955026         1.373843
 C        -0.097431         2.682673         0.632678
 H         0.998290         0.486068         1.258429
 H        -2.520320         1.657166        -0.491777
 H        -2.498164         0.139520         0.752002
 H        -1.894885         1.580746         2.703346
 H        -1.686378         4.214218         1.116581
 H         1.426661         3.725806         3.429839
 H         0.868040         2.109809         3.396988
 H         1.750452         3.899459         1.108554
 H         1.985922         2.041726         1.229951
 H         0.049766         2.911809        -0.570780
