19
Iteration:   984charge 0 multiplicity 1
 O        -0.080863         0.003150         1.040894
 C        -0.682318         1.195725         0.801943
 C        -2.023281         1.165209         0.316533
 C        -1.734840         1.698066         1.688097
 C        -1.091460         3.190319         1.567124
 O        -0.494209         3.726348         2.745649
 C         0.912261         3.520240         2.776970
 C         1.267416         2.995057         1.323036
 C         0.005767         2.619429         0.595039
 H         0.545654        -0.165099         0.336929
 H        -2.461637         1.877575        -0.498808
 H        -2.499141         0.282861         0.487155
 H        -2.329142         1.495442         2.674294
 H        -1.861382         3.805963         1.093883
 H         1.473911         4.436145         3.122966
 H         1.014140         2.684815         3.583303
 H         1.674173         3.890281         0.819673
 H         2.001277         2.055784         1.256457
 H         0.048142         2.813361        -0.468585
