19
Iteration:  3329
 O         0.186790         0.158592         0.944938
 C        -0.576323         1.279309         0.812407
 C        -1.999928         1.182701         0.388773
 C        -1.771524         1.821765         1.746132
 C        -1.141678         3.227587         1.519506
 O        -0.521228         3.838833         2.713999
 C         0.688173         3.082435         2.793416
 C         1.260286         2.839437         1.299954
 C        -0.120000         2.647764         0.571122
 H         0.992830         0.415605         1.474460
 H        -2.444445         1.713848        -0.419849
 H        -2.460000         0.120560         0.492219
 H        -2.279436         1.679631         2.795099
 H        -1.850576         4.017276         0.955455
 H         1.465662         3.642909         3.359338
 H         0.423026         2.108869         3.189367
 H         1.877038         3.690144         0.988100
 H         2.018267         2.060761         1.254633
 H        -0.207982         3.085778        -0.401592
