19
Iteration:  3447
 O         0.093518         0.039833         0.822740
 C        -0.598782         1.248208         0.820906
 C        -2.119066         1.171007         0.403799
 C        -1.771107         1.791820         1.752428
 C        -1.104946         3.187620         1.533174
 O        -0.566228         3.781975         2.678542
 C         0.798804         3.287614         2.862750
 C         1.300844         2.985475         1.385433
 C        -0.016310         2.663377         0.600137
 H         0.649422         0.220997         1.561217
 H        -2.623953         1.742045        -0.368607
 H        -2.463676         0.128825         0.143047
 H        -2.225025         1.373870         2.711566
 H        -1.645490         3.864051         0.927525
 H         1.457548         3.998189         3.281276
 H         0.791795         2.316420         3.413762
 H         1.977586         3.677836         0.941654
 H         2.023414         2.090615         1.381665
 H        -0.004955         2.882023        -0.512095
