19
Iteration:  3636
 O         0.092572         0.117155         0.924518
 C        -0.607948         1.283798         0.808610
 C        -2.039419         1.187775         0.364540
 C        -1.747748         1.772369         1.702582
 C        -1.219244         3.222576         1.609800
 O        -0.503598         3.794606         2.693765
 C         0.780710         3.153257         2.845889
 C         1.229070         2.988394         1.273539
 C         0.058724         2.619474         0.549297
 H         0.307893        -0.079377         1.829796
 H        -2.336528         1.698360        -0.539971
 H        -2.500074         0.148640         0.432476
 H        -2.056654         1.353488         2.728276
 H        -2.097735         3.890536         1.336223
 H         1.391154         3.971025         3.313197
 H         0.629767         2.192695         3.357151
 H         1.833050         3.869383         0.890422
 H         2.181293         2.186494         1.308750
 H         0.025938         2.916466        -0.597219
