19
Iteration:  2015
 O         0.281540         0.178033         0.989844
 C        -0.596188         1.249175         0.809158
 C        -2.218855         1.168262         0.434982
 C        -1.644096         1.782718         1.775465
 C        -1.095620         3.212076         1.539977
 O        -0.514491         3.886233         2.582981
 C         0.730530         3.149285         2.775026
 C         1.234585         2.816974         1.428250
 C        -0.073743         2.694777         0.540072
 H        -0.116935        -0.630280         0.508584
 H        -2.422393         1.726424        -0.452782
 H        -2.948358         0.213170         0.458249
 H        -2.090658         1.490020         2.718626
 H        -1.940671         3.870908         1.079148
 H         1.520411         3.843528         3.281011
 H         0.463142         2.287041         3.377638
 H         1.888186         3.696418         1.092432
 H         1.822576         1.892407         1.415603
 H        -0.223338         3.176890        -0.469430
