19
Iteration:  4006charge 0 multiplicity 1
 O         0.103267         0.048516         0.824493
 C        -0.619472         1.271751         0.770377
 C        -2.027443         1.238124         0.357446
 C        -1.689153         1.735115         1.809142
 C        -1.156748         3.172808         1.583493
 O        -0.511266         3.784937         2.617544
 C         0.787453         3.305307         2.843385
 C         1.224135         2.912634         1.406015
 C        -0.062728         2.650712         0.588955
 H         0.691152         0.215260         1.624927
 H        -2.478049         1.744784        -0.550919
 H        -2.611974         0.287931         0.467702
 H        -2.138119         1.320917         2.644291
 H        -2.058872         3.814822         1.322038
 H         1.492456         4.045204         3.404825
 H         0.660273         2.389201         3.411594
 H         1.718080         3.747482         0.984897
 H         1.952089         2.102675         1.488869
 H         0.080392         3.021689        -0.379014
