19
Iteration:   796charge 0 multiplicity 1
 O         0.117660         0.073043         1.107120
 C        -0.620845         1.188999         0.921017
 C        -2.074126         1.279865         0.329072
 C        -1.826561         1.804035         1.728703
 C        -1.173135         3.160883         1.537211
 O        -0.548554         3.743244         2.737692
 C         0.886853         3.330495         2.668083
 C         1.359211         2.983813         1.288155
 C        -0.001246         2.606132         0.570747
 H        -0.363984        -0.648938         0.739184
 H        -2.449894         2.025352        -0.377971
 H        -2.568942         0.193149         0.171506
 H        -2.436725         1.374061         2.378212
 H        -1.788327         3.958153         1.062720
 H         1.518928         4.071119         3.092401
 H         0.889958         2.338478         3.073905
 H         1.707569         3.901815         0.724070
 H         2.072545         2.138422         1.479223
 H        -0.031672         2.803253        -0.554049
