19
Iteration:  2441charge 0 multiplicity 1
 O         0.252282         0.224929         0.996546
 C        -0.690791         1.209775         0.885038
 C        -2.039903         1.193104         0.353289
 C        -1.772146         1.754713         1.749245
 C        -1.201400         3.210908         1.576037
 O        -0.474903         3.809420         2.654254
 C         0.815036         3.187190         2.729877
 C         1.215592         2.890045         1.293195
 C        -0.077028         2.628985         0.558610
 H         0.065709        -0.347660         1.780169
 H        -2.220265         1.913035        -0.497472
 H        -2.698023         0.224299         0.328855
 H        -2.394960         1.308481         2.478665
 H        -1.898846         4.024935         1.337310
 H         1.526435         3.865611         3.335834
 H         0.787946         2.352516         3.304437
 H         1.940877         3.632752         0.832184
 H         1.819806         1.989253         1.224172
 H        -0.100986         3.060874        -0.474372
