19
Iteration:  1502
 O         0.299005         0.089054         0.943293
 C        -0.626852         1.232788         0.812249
 C        -2.080871         1.178518         0.438650
 C        -1.803758         1.894061         1.826517
 C        -1.201888         3.273001         1.499524
 O        -0.577129         3.726998         2.650010
 C         0.821162         3.252407         2.740747
 C         1.301324         2.901048         1.376846
 C        -0.055159         2.635789         0.544444
 H        -0.308452        -0.728431         1.023912
 H        -2.558726         1.739997        -0.402629
 H        -2.541742         0.100436         0.295420
 H        -2.320036         1.707921         2.752619
 H        -1.667543         4.136013         1.090581
 H         1.286035         4.097109         3.413951
 H         0.719821         2.276120         3.431411
 H         1.967046         3.703289         0.941648
 H         1.856617         2.031506         1.419428
 H         0.029323         2.935099        -0.520256
