19
Iteration:  1854
 O         0.211925         0.086849         1.029610
 C        -0.649780         1.256071         0.892306
 C        -2.031262         1.189111         0.404165
 C        -1.727809         1.850763         1.691885
 C        -1.186554         3.251652         1.518565
 O        -0.565498         3.758263         2.703404
 C         0.783240         3.185985         2.784472
 C         1.341975         2.948596         1.288521
 C        -0.046798         2.646416         0.548671
 H        -0.156605        -0.664298         0.489744
 H        -2.361090         1.726790        -0.454114
 H        -2.601809         0.201086         0.435753
 H        -2.278192         1.554276         2.629253
 H        -1.915053         4.013486         1.266451
 H         1.117180         3.987075         3.458472
 H         0.671474         2.205765         3.276886
 H         1.892555         3.833330         0.775647
 H         1.912054         2.050415         1.110345
 H        -0.158359         3.094785        -0.444589
