19
Iteration:  4675charge 0 multiplicity 1
 O         0.132727         0.036314         0.848368
 C        -0.648255         1.223828         0.824097
 C        -2.066926         1.194459         0.369406
 C        -1.777004         1.802860         1.704655
 C        -1.122607         3.217560         1.509629
 O        -0.523622         3.737658         2.671502
 C         0.801382         3.255641         2.861321
 C         1.255369         3.020371         1.422921
 C        -0.011694         2.683787         0.595832
 H         0.591519        -0.100001         1.694287
 H        -2.497501         1.765225        -0.477921
 H        -2.504343         0.122877         0.562269
 H        -2.315803         1.195090         2.480100
 H        -1.783157         4.007098         1.076821
 H         1.423172         3.980573         3.400550
 H         0.626463         2.308994         3.359636
 H         1.711967         3.880221         0.990081
 H         1.943746         2.279270         1.404851
 H         0.147053         2.859544        -0.461469
