19
Iteration:  1600
 O         0.155831         0.104378         1.107062
 C        -0.719073         1.276479         0.797565
 C        -2.143457         1.090970         0.374525
 C        -1.743834         1.821972         1.654808
 C        -1.110437         3.222503         1.475299
 O        -0.508000         3.793922         2.662106
 C         0.856839         3.166235         2.807667
 C         1.260893         2.992607         1.346231
 C        -0.025431         2.676130         0.610879
 H         0.802517        -0.066580         0.353101
 H        -2.707183         1.536613        -0.430411
 H        -2.573430         0.065726         0.684472
 H        -2.140056         1.350672         2.585904
 H        -1.819726         3.985124         1.121701
 H         1.394794         3.943141         3.421305
 H         0.725252         2.227691         3.313091
 H         1.802458         3.831941         0.795765
 H         1.971749         2.227584         1.305697
 H        -0.075392         3.030036        -0.446514
