19
Iteration:  3545
 O         0.088678        -0.012329         0.811565
 C        -0.570399         1.191052         0.762742
 C        -2.048205         1.203574         0.454950
 C        -1.624136         1.839141         1.819906
 C        -1.194283         3.272625         1.529869
 O        -0.621183         3.821747         2.651138
 C         0.756343         3.164256         2.795070
 C         1.297913         3.025868         1.403314
 C        -0.006403         2.604790         0.598656
 H         0.463157        -0.011379         1.677068
 H        -2.455816         1.833205        -0.398493
 H        -2.542741         0.254355         0.545643
 H        -2.147538         1.502298         2.669744
 H        -1.768915         4.033158         1.080376
 H         1.347554         3.862146         3.323708
 H         0.724976         2.190034         3.292098
 H         1.671103         3.909284         0.897918
 H         2.085683         2.136302         1.312925
 H         0.061850         3.185067        -0.377659
