19
Iteration:  4147
 O         0.130791         0.078955         0.866984
 C        -0.649244         1.255248         0.854446
 C        -2.038972         1.248871         0.355305
 C        -1.794812         1.733481         1.760969
 C        -1.142597         3.192886         1.538132
 O        -0.590401         3.766694         2.684364
 C         0.828518         3.164882         2.781133
 C         1.297981         3.015736         1.346918
 C        -0.023638         2.667308         0.636924
 H         0.456484        -0.098376         1.813560
 H        -2.388639         1.852714        -0.452901
 H        -2.256262         0.116669         0.329201
 H        -2.222995         1.399234         2.614280
 H        -1.782928         4.055624         1.157735
 H         1.512312         4.021884         3.209748
 H         0.878553         2.301415         3.452965
 H         1.707668         4.019655         0.961006
 H         2.027152         2.191478         1.157731
 H        -0.057194         2.731870        -0.546543
