19
Iteration:  4556charge 0 multiplicity 1
 O         0.077772         0.012939         0.830145
 C        -0.571627         1.223555         0.804703
 C        -2.100033         1.202010         0.371394
 C        -1.642733         1.824992         1.726464
 C        -1.118441         3.181309         1.507031
 O        -0.573257         3.784187         2.752537
 C         0.681952         3.288538         2.814358
 C         1.254542         2.984958         1.410737
 C         0.001837         2.641208         0.558358
 H         0.753833         0.097442         1.590178
 H        -2.533001         1.721493        -0.404449
 H        -2.402642         0.096969         0.590591
 H        -1.924668         1.467901         2.748129
 H        -1.731483         3.942789         1.022572
 H         1.230732         3.938152         3.386454
 H         0.731472         2.263224         3.214853
 H         1.807175         3.859510         1.096327
 H         1.984716         2.079096         1.369938
 H         0.190706         3.083635        -0.452586
