19
Iteration:   281charge 0 multiplicity 1
 O         0.102090         0.030080         1.079373
 C        -0.673833         1.215776         0.742630
 C        -2.091013         1.170915         0.403690
 C        -1.633261         1.762129         1.774179
 C        -1.166695         3.247032         1.516551
 O        -0.507032         3.919118         2.594012
 C         0.817174         3.277549         2.850171
 C         1.203929         2.886876         1.384613
 C        -0.019973         2.619209         0.518888
 H         0.558776        -0.278092         0.244291
 H        -2.561949         1.774735        -0.353810
 H        -2.605474         0.206005         0.482723
 H        -2.057526         1.390158         2.688270
 H        -1.887763         3.875634         0.963632
 H         1.534904         3.916053         3.353732
 H         0.664515         2.390001         3.469312
 H         1.788030         3.751620         0.960911
 H         1.955095         2.105880         1.419769
 H         0.105256         2.995297        -0.478909
