19
Iteration:   542charge 0 multiplicity 1
 O         0.094234         0.095956         1.071417
 C        -0.631929         1.288461         0.822014
 C        -2.080495         1.189394         0.480359
 C        -1.658128         1.871945         1.731221
 C        -1.167770         3.201375         1.440044
 O        -0.599107         3.738137         2.634766
 C         0.830493         3.242621         2.768957
 C         1.276108         2.880506         1.386204
 C         0.051348         2.620520         0.561766
 H         0.072982        -0.258165         0.173591
 H        -2.527126         1.961903        -0.245649
 H        -2.541599         0.154831         0.475032
 H        -1.952440         1.488190         2.789408
 H        -1.962538         3.829201         1.006209
 H         1.297169         4.139089         3.116410
 H         0.778628         2.375785         3.453054
 H         1.652285         3.841028         0.828699
 H         2.022342         2.087766         1.224427
 H         0.056163         2.960438        -0.589983
