19
Iteration:  4895
 O         0.095988        -0.009104         0.861721
 C        -0.645218         1.254687         0.832966
 C        -2.082418         1.241860         0.250465
 C        -1.696870         1.774451         1.698813
 C        -1.119133         3.137230         1.558070
 O        -0.544008         3.815650         2.721357
 C         0.809739         3.290537         2.860305
 C         1.240153         2.991080         1.377747
 C         0.022327         2.630050         0.616785
 H         0.663222        -0.052819         1.712742
 H        -2.328004         1.931910        -0.555764
 H        -2.608910         0.146516         0.292662
 H        -2.254779         1.361160         2.702629
 H        -1.893261         3.817553         1.148356
 H         1.356631         4.019622         3.411550
 H         0.726289         2.396692         3.546737
 H         1.515898         3.848781         0.804481
 H         1.951244         2.213149         1.375404
 H        -0.049987         3.035969        -0.308168
