19
Iteration:  2427
 O         0.251551         0.152570         0.915989
 C        -0.606177         1.252815         0.866709
 C        -2.046698         1.213548         0.384538
 C        -1.703429         1.831033         1.808304
 C        -1.201937         3.234265         1.528200
 O        -0.511636         3.817349         2.645626
 C         0.737246         3.156849         2.761813
 C         1.285997         2.849054         1.292070
 C        -0.128021         2.627362         0.602452
 H         0.180230        -0.200155         1.785954
 H        -2.442932         1.869102        -0.408590
 H        -2.462844         0.288207         0.383849
 H        -2.168537         1.699300         2.866495
 H        -2.044210         3.847180         1.034097
 H         1.424421         3.939060         3.365943
 H         0.538589         2.129583         3.221597
 H         1.654118         3.757408         0.811226
 H         1.868858         1.929358         1.340635
 H        -0.169376         2.712840        -0.512994
