19
Iteration:  2898charge 0 multiplicity 1
 O         0.096811        -0.038780         0.745039
 C        -0.595957         1.174975         0.922383
 C        -2.098127         1.272158         0.457042
 C        -1.581686         1.829735         1.833099
 C        -1.187068         3.191861         1.466558
 O        -0.610463         3.878815         2.678043
 C         0.695120         3.237820         2.781120
 C         1.309576         2.951199         1.402053
 C         0.030883         2.618713         0.568772
 H         0.545438        -0.179692         1.588809
 H        -2.134487         1.942422        -0.515378
 H        -2.672628         0.405224         0.482174
 H        -1.859109         1.373464         2.746699
 H        -1.983410         3.761178         1.086938
 H         1.426148         3.913243         3.322465
 H         0.400000         2.338243         3.331440
 H         1.663946         3.951213         0.948269
 H         2.057607         2.157031         1.342789
 H         0.150389         3.042203        -0.474613
