19
Iteration:  4240charge 0 multiplicity 1
 O         0.229063         0.068441         0.849667
 C        -0.634927         1.209849         0.764388
 C        -2.067535         1.178769         0.403297
 C        -1.800392         1.881481         1.787106
 C        -1.122688         3.246352         1.523114
 O        -0.510331         3.833851         2.720226
 C         0.758762         3.155382         2.812536
 C         1.173416         2.993135         1.370312
 C        -0.031019         2.587179         0.571561
 H         0.913865         0.315010         1.438273
 H        -2.516394         1.694364        -0.594056
 H        -2.564141         0.177543         0.483081
 H        -2.065227         1.245023         2.746379
 H        -1.805791         3.989280         1.132788
 H         1.366577         3.718514         3.463601
 H         0.448696         2.197797         3.375483
 H         1.707633         3.771949         1.079309
 H         1.723918         2.093965         1.233318
 H         0.236619         2.802599        -0.461106
