19
Iteration:  4379
 O         0.161216         0.048625         0.885700
 C        -0.662864         1.262180         0.752088
 C        -2.127165         1.169102         0.362415
 C        -1.618900         1.785916         1.676337
 C        -1.160477         3.228893         1.554156
 O        -0.600856         3.805297         2.681770
 C         0.798495         3.193495         2.858270
 C         1.273845         2.953128         1.437314
 C        -0.044929         2.677159         0.556571
 H         0.713031        -0.073397         1.737840
 H        -2.525477         1.657811        -0.498542
 H        -2.579994         0.312495         0.588674
 H        -2.070317         1.310496         2.597876
 H        -1.888325         4.023311         1.242323
 H         1.474145         3.969124         3.228621
 H         0.877167         2.271118         3.618543
 H         1.751814         3.984331         1.077321
 H         2.049020         2.094942         1.282205
 H        -0.014761         3.012379        -0.520330
