19
Iteration:  3861
 O         0.198502         0.110131         0.901012
 C        -0.638990         1.222941         0.811380
 C        -2.148986         1.100376         0.423318
 C        -1.786083         1.846378         1.676311
 C        -1.149943         3.302292         1.492883
 O        -0.483228         3.739722         2.672094
 C         0.755219         3.078976         2.838618
 C         1.273825         2.951000         1.361292
 C        -0.061170         2.702848         0.613028
 H         1.002743         0.526492         1.366953
 H        -2.559814         1.564107        -0.479405
 H        -2.580017         0.088957         0.501908
 H        -1.964599         1.809106         2.829238
 H        -1.650050         4.238586         1.174857
 H         1.383245         3.811911         3.378228
 H         0.673921         2.188869         3.444464
 H         1.668911         3.916225         0.976856
 H         2.027407         2.229543         1.227562
 H        -0.122824         3.028699        -0.390083
