19
Iteration:  2147charge 0 multiplicity 1
 O         0.152302         0.087812         1.028281
 C        -0.646027         1.205157         0.858096
 C        -2.056389         1.114784         0.292932
 C        -1.715074         1.858714         1.797571
 C        -1.183300         3.303045         1.576477
 O        -0.473946         3.841247         2.679953
 C         0.803854         3.169828         2.753659
 C         1.211324         2.923752         1.315043
 C        -0.108080         2.626297         0.594276
 H         0.970783         0.203863         0.427632
 H        -2.284854         1.673382        -0.655037
 H        -2.462788         0.115822         0.385946
 H        -2.239620         1.361639         2.630208
 H        -2.001515         3.955786         1.125078
 H         1.561780         3.805428         3.280477
 H         0.721189         2.131084         3.351841
 H         1.626912         3.818289         0.682726
 H         1.925892         2.148894         1.464638
 H        -0.096827         2.969548        -0.464963
