19
Iteration:  1318charge 0 multiplicity 1
 O         0.216095         0.164992         1.089126
 C        -0.656037         1.249474         0.877623
 C        -2.075047         1.189653         0.396273
 C        -1.769100         1.851471         1.714320
 C        -1.200633         3.252509         1.481272
 O        -0.510119         3.727079         2.633419
 C         0.830414         3.101474         2.779481
 C         1.254360         2.960924         1.288485
 C        -0.065078         2.614980         0.598929
 H         0.244505        -0.576264         0.480795
 H        -2.299760         1.836128        -0.478318
 H        -2.499615         0.236505         0.493127
 H        -2.267746         1.661016         2.629442
 H        -1.884825         4.069945         1.176753
 H         1.431463         3.947849         3.331479
 H         0.721874         2.163964         3.423050
 H         1.671139         3.949032         0.824136
 H         2.140329         2.326669         1.154091
 H        -0.124608         2.930731        -0.417446
