19
Iteration:  1977
 O         0.115256         0.060332         0.935213
 C        -0.676914         1.234526         0.900067
 C        -2.040751         1.117561         0.507771
 C        -1.667023         1.864254         1.757723
 C        -1.118788         3.267334         1.440756
 O        -0.532706         3.820751         2.636653
 C         0.726579         3.152806         2.807686
 C         1.238434         2.960546         1.370126
 C         0.013896         2.667183         0.516622
 H        -0.002617        -0.348515         0.069428
 H        -2.409491         1.611969        -0.432811
 H        -2.407443         0.174612         0.756289
 H        -2.112671         1.597706         2.708177
 H        -1.865873         3.948099         1.134292
 H         1.423563         3.743862         3.309416
 H         0.663737         2.254902         3.468862
 H         1.599286         3.945537         1.130641
 H         2.164460         2.317106         1.414413
 H         0.173446         2.953681        -0.508459
