19
Iteration:  1146
 O         0.142588         0.057014         0.842612
 C        -0.665164         1.192132         0.877052
 C        -2.000851         1.178713         0.311209
 C        -1.706485         1.799765         1.830527
 C        -1.124388         3.164211         1.593033
 O        -0.507521         3.896777         2.672333
 C         0.793098         3.399967         2.753893
 C         1.208460         2.889539         1.360456
 C        -0.016712         2.530312         0.655412
 H        -0.414421        -0.760713         0.516654
 H        -2.401090         1.759967        -0.648543
 H        -2.607348         0.248967         0.432726
 H        -2.301311         1.397525         2.606672
 H        -1.818439         3.988535         1.179130
 H         1.302665         4.198994         3.284046
 H         0.816754         2.582779         3.556535
 H         1.625151         3.733080         0.798261
 H         1.987737         2.102560         1.648916
 H         0.053847         3.098792        -0.383816
