19
Iteration:  3745charge 0 multiplicity 1
 O         0.089642         0.065344         0.821958
 C        -0.647459         1.236526         0.831182
 C        -2.041530         1.195712         0.402955
 C        -1.710374         1.762431         1.754749
 C        -1.102717         3.252665         1.566914
 O        -0.596678         3.795015         2.665663
 C         0.795579         3.293142         2.864337
 C         1.254140         2.866797         1.331421
 C        -0.020652         2.608037         0.591796
 H         0.935971         0.180248         1.367850
 H        -2.456212         1.792929        -0.461596
 H        -2.690395         0.347803         0.442963
 H        -2.000494         1.233479         2.622983
 H        -1.686807         3.984930         0.984118
 H         1.319005         4.138961         3.471996
 H         0.809191         2.336885         3.504670
 H         1.742840         3.791889         0.958617
 H         2.138324         2.121115         1.490656
 H        -0.077334         3.182357        -0.502416
