19
Iteration:  2170
 O         0.201922         0.170666         1.061529
 C        -0.619561         1.243331         0.825955
 C        -2.152717         1.142709         0.453705
 C        -1.786472         1.842382         1.672649
 C        -1.154697         3.218755         1.490963
 O        -0.499971         3.775175         2.646084
 C         0.816726         3.121185         2.823358
 C         1.290772         2.924041         1.334053
 C        -0.083065         2.673636         0.548057
 H         0.779810         0.141137         0.316813
 H        -2.750464         1.630940        -0.382912
 H        -2.414747         0.191621         0.697286
 H        -2.217977         1.378558         2.621852
 H        -1.861892         3.941791         0.960245
 H         1.407641         3.851345         3.474110
 H         0.654421         2.147843         3.450076
 H         1.685049         3.918278         0.924347
 H         2.027699         2.145181         1.166060
 H        -0.018858         2.994115        -0.521016
