19
Iteration:  3668charge 0 multiplicity 1
 O         0.137119         0.043302         0.879271
 C        -0.534554         1.207913         0.762914
 C        -2.101019         1.193928         0.484800
 C        -1.697569         1.896829         1.733452
 C        -1.175688         3.229061         1.480500
 O        -0.547283         3.788405         2.630950
 C         0.710214         3.053459         2.865099
 C         1.241246         3.032889         1.284932
 C         0.017978         2.677219         0.614630
 H         0.419721         0.139547         1.817939
 H        -2.363248         1.716695        -0.433710
 H        -2.631390         0.199453         0.636044
 H        -1.863554         1.545340         2.800209
 H        -1.932183         4.004757         1.248136
 H         1.339114         3.622110         3.610400
 H         0.581379         2.067215         3.411297
 H         1.624622         4.058266         1.094263
 H         2.051036         2.159096         1.244352
 H         0.061913         3.147433        -0.513313
