19
Iteration:    51charge 0 multiplicity 1
 O        -0.074316        -0.057547         0.917541
 C        -0.614779         1.187939         0.805640
 C        -1.997501         1.190256         0.379217
 C        -1.687312         1.744895         1.782198
 C        -1.176692         3.191667         1.542499
 O        -0.557980         3.889372         2.599848
 C         0.857933         3.431977         2.825685
 C         1.218553         2.979936         1.452240
 C         0.086003         2.522285         0.609749
 H         0.701204        -0.183711         0.332098
 H        -2.309883         1.862711        -0.414077
 H        -2.575284         0.167293         0.393985
 H        -2.144363         1.351202         2.786536
 H        -1.941375         3.880124         1.071165
 H         1.498184         4.359620         3.066878
 H         0.896927         2.645779         3.659995
 H         1.710891         3.862251         0.947944
 H         2.058515         2.235615         1.416302
 H         0.230319         2.981741        -0.495457
