19
Iteration:  1124
 O         0.245731         0.110235         0.877946
 C        -0.596148         1.198081         0.832661
 C        -2.078625         1.150723         0.435933
 C        -1.801681         1.751872         1.752465
 C        -1.207781         3.258754         1.547010
 O        -0.498635         3.888015         2.587726
 C         0.831613         3.233888         2.785255
 C         1.294367         2.899004         1.388747
 C        -0.114462         2.634633         0.655623
 H        -0.341878        -0.593659         0.970986
 H        -2.509604         1.879982        -0.431643
 H        -2.664429         0.253740         0.321125
 H        -2.229720         1.396330         2.697639
 H        -1.872398         4.135007         1.164807
 H         1.455902         3.932976         3.350707
 H         0.646199         2.433383         3.546752
 H         1.887767         3.765781         1.022881
 H         1.918899         1.934635         1.410667
 H         0.089128         2.836497        -0.473184
