19
Iteration:    86
 O         0.126230         0.040266         0.971436
 C        -0.629485         1.203337         0.786425
 C        -2.106891         1.230249         0.468614
 C        -1.677455         1.808601         1.765571
 C        -1.183740         3.163545         1.479922
 O        -0.581509         3.887514         2.573116
 C         0.759963         3.323499         2.829722
 C         1.301809         2.898265         1.465057
 C         0.044283         2.577531         0.552443
 H         0.248352        -0.488744         0.117472
 H        -2.419803         1.921291        -0.283717
 H        -2.654893         0.306432         0.597630
 H        -2.121811         1.444722         2.664625
 H        -1.951315         3.820906         1.099666
 H         1.541759         4.081787         3.197563
 H         0.805113         2.422135         3.469037
 H         1.782002         3.722234         1.016705
 H         1.964815         2.073188         1.562747
 H         0.238804         2.858975        -0.518029
