19
Iteration:   555charge 0 multiplicity 1
 O         0.039966         0.127025         1.011072
 C        -0.616827         1.249671         0.763458
 C        -2.065071         1.161319         0.493256
 C        -1.681831         1.794455         1.803069
 C        -1.089679         3.235111         1.419189
 O        -0.553603         3.696848         2.628835
 C         0.783580         3.313172         2.839947
 C         1.255937         2.943639         1.373933
 C        -0.016769         2.595651         0.506440
 H        -0.174919        -0.701421         0.473872
 H        -2.494488         1.797764        -0.384693
 H        -2.416480         0.201846         0.433958
 H        -2.097549         1.612168         2.900299
 H        -1.585897         4.102614         0.959955
 H         1.379442         4.179212         3.239225
 H         1.042820         2.577522         3.626102
 H         1.836783         3.883102         0.987427
 H         2.004843         2.175240         1.512195
 H         0.139657         2.935729        -0.569140
