19
Iteration:  1153charge 0 multiplicity 1
 O         0.130316         0.027210         0.856182
 C        -0.622447         1.136390         0.827872
 C        -2.037086         1.196824         0.331193
 C        -1.671593         1.780415         1.795189
 C        -1.124355         3.236333         1.612175
 O        -0.537060         3.833918         2.654172
 C         0.781530         3.444493         2.743726
 C         1.239410         2.926001         1.420422
 C        -0.058939         2.544655         0.674625
 H        -0.496101        -0.582104         0.405842
 H        -2.337932         1.832840        -0.480640
 H        -2.722269         0.401817         0.376476
 H        -2.237140         1.391302         2.728984
 H        -1.782761         3.966416         1.141869
 H         1.479014         4.224785         3.133607
 H         0.884846         2.620970         3.508655
 H         1.811470         3.721577         0.831539
 H         1.998239         2.214081         1.568803
 H         0.088675         2.713261        -0.433137
