19
Iteration:  1023
 O         0.199576         0.120389         1.121044
 C        -0.596933         1.192926         0.870843
 C        -2.066562         1.260281         0.355281
 C        -1.743975         1.859588         1.728403
 C        -1.159386         3.195557         1.520461
 O        -0.541392         3.706900         2.688693
 C         0.854673         3.259197         2.792689
 C         1.256910         2.921902         1.259281
 C        -0.083570         2.623727         0.541638
 H        -0.080776        -0.668513         0.529894
 H        -2.389728         1.941490        -0.487089
 H        -2.809822         0.438078         0.468186
 H        -2.468334         1.436146         2.422107
 H        -1.763592         4.059199         1.071831
 H         1.490281         4.050437         3.208640
 H         0.916014         2.323620         3.359051
 H         1.651151         3.862111         0.776693
 H         1.832969         2.043593         1.236127
 H        -0.182208         2.983147        -0.544621
