19
Iteration:  3166
 O         0.133297        -0.005288         0.746640
 C        -0.611424         1.211949         0.743855
 C        -2.032317         1.161103         0.482222
 C        -1.682336         1.849523         1.793598
 C        -1.128282         3.214325         1.498820
 O        -0.538168         3.876289         2.630540
 C         0.731888         3.206884         2.841245
 C         1.220445         2.954508         1.433841
 C        -0.015885         2.638718         0.613297
 H         0.451161        -0.021927         1.693760
 H        -2.658200         1.713179        -0.263623
 H        -2.284917         0.180310         0.579748
 H        -2.140751         1.724121         2.786946
 H        -1.801634         3.844518         1.054265
 H         1.239423         3.915292         3.556659
 H         0.374158         2.341925         3.451108
 H         1.760921         3.756849         0.885375
 H         1.930554         2.125566         1.499263
 H         0.076717         3.103283        -0.367549
