19
Iteration:  4975
 O         0.137383         0.071826         0.865096
 C        -0.591062         1.280983         0.807728
 C        -2.040295         1.149012         0.448219
 C        -1.749417         1.827677         1.750374
 C        -1.126166         3.245798         1.441780
 O        -0.530104         3.815874         2.633527
 C         0.709140         3.018167         2.850352
 C         1.253832         3.003539         1.451809
 C        -0.026758         2.680677         0.603360
 H         1.018260         0.413092         1.258641
 H        -2.514013         1.838888        -0.407653
 H        -2.371880         0.162034         0.623284
 H        -2.395031         1.597725         2.466143
 H        -1.887134         3.999991         1.010521
 H         1.332014         3.753777         3.587280
 H         0.415478         2.060684         3.346346
 H         1.827039         3.875163         1.068897
 H         1.930088         2.143000         1.101095
 H         0.029089         2.944935        -0.471704
