19
Iteration:   996
 O        -0.034172         0.034997         1.103413
 C        -0.597108         1.263286         0.879023
 C        -2.084573         1.194180         0.276602
 C        -1.705665         1.779319         1.704543
 C        -1.174635         3.173217         1.555597
 O        -0.527644         3.706119         2.718918
 C         0.905727         3.427617         2.758979
 C         1.294470         2.992146         1.297784
 C        -0.030389         2.586429         0.582180
 H         0.336409        -0.315928         0.200366
 H        -2.531077         1.852243        -0.479602
 H        -2.462164         0.196590         0.260932
 H        -2.070442         1.068724         2.499325
 H        -1.706605         4.021604         1.214034
 H         1.421498         4.388983         3.070543
 H         1.173176         2.592460         3.538552
 H         1.829343         3.721641         0.703777
 H         2.071390         2.111069         1.453405
 H        -0.121154         2.972246        -0.454948
