19
Iteration:  1132charge 0 multiplicity 1
 O         0.196438         0.098199         0.850687
 C        -0.639969         1.189716         0.859486
 C        -2.042945         1.165968         0.395189
 C        -1.796852         1.757394         1.754352
 C        -1.187626         3.203677         1.565432
 O        -0.510348         3.942549         2.633899
 C         0.828152         3.308093         2.840169
 C         1.296638         2.881855         1.388901
 C        -0.076632         2.607332         0.641865
 H        -0.336506        -0.673761         0.839249
 H        -2.330461         1.770490        -0.491167
 H        -2.415875         0.185658         0.356871
 H        -2.352300         1.412984         2.708963
 H        -1.926562         3.852852         1.038088
 H         1.623030         3.981392         3.201388
 H         0.774382         2.367104         3.506978
 H         1.936269         3.711025         0.904118
 H         1.894133         2.037194         1.190365
 H        -0.155203         2.809102        -0.542759
