19
Iteration:  1769
 O         0.101545         0.097789         0.985052
 C        -0.659953         1.255869         0.820653
 C        -2.039836         1.086972         0.394721
 C        -1.739942         1.820088         1.760160
 C        -1.137100         3.242285         1.498370
 O        -0.559615         3.820466         2.635247
 C         0.807012         3.243206         2.817858
 C         1.263605         2.857971         1.403008
 C        -0.038580         2.703653         0.547763
 H         0.695023         0.050211         0.190080
 H        -2.345634         1.734827        -0.457694
 H        -2.537518         0.014590         0.705797
 H        -2.013231         1.374913         2.760648
 H        -1.952973         3.839571         1.078222
 H         1.397950         4.076832         3.097178
 H         1.057277         2.475855         3.549877
 H         1.998279         3.628177         1.167878
 H         1.795176         1.842295         1.285771
 H         0.017860         3.217074        -0.402573
