19
Iteration:   757
 O         0.039214        -0.014481         1.096183
 C        -0.643275         1.219175         0.843870
 C        -2.065165         1.150297         0.364256
 C        -1.801179         1.814920         1.669748
 C        -1.135106         3.275017         1.477525
 O        -0.493183         3.714014         2.762011
 C         0.888246         3.372396         2.758729
 C         1.253900         3.032043         1.302892
 C         0.014477         2.573263         0.579747
 H         0.075192        -0.500851         0.192690
 H        -2.391785         1.668003        -0.537788
 H        -2.547051         0.264360         0.587633
 H        -2.493741         1.559528         2.640683
 H        -1.621821         4.166043         0.958923
 H         1.546150         4.226969         3.169867
 H         1.050902         2.481953         3.451700
 H         1.659714         3.903711         0.824753
 H         2.112860         2.323546         1.270309
 H        -0.018861         2.927177        -0.431205
