19
Iteration:  2794
 O         0.216667         0.138347         0.959701
 C        -0.631217         1.277124         0.807833
 C        -2.093881         1.184893         0.402852
 C        -1.766029         1.811199         1.710028
 C        -1.154764         3.223274         1.518768
 O        -0.516619         3.789413         2.696134
 C         0.803195         3.127607         2.754050
 C         1.254382         2.960392         1.370066
 C        -0.075239         2.602980         0.517117
 H         0.207226         0.106905         1.974282
 H        -2.375733         1.698886        -0.473080
 H        -2.581177         0.264988         0.532023
 H        -2.158001         1.556433         2.692507
 H        -1.852586         3.922364         1.046518
 H         1.398478         3.668812         3.428299
 H         0.716748         2.170024         3.303158
 H         1.709367         3.777512         0.934060
 H         2.044887         2.220551         1.397719
 H        -0.091732         2.986018        -0.496118
