19
Iteration:  2781
 O         0.187978         0.072925         1.005786
 C        -0.624794         1.244656         0.808622
 C        -2.037946         1.113422         0.372447
 C        -1.743748         1.882794         1.697741
 C        -1.206959         3.337750         1.579077
 O        -0.519269         3.825966         2.714390
 C         0.735320         3.059043         2.786424
 C         1.275621         2.947825         1.256060
 C        -0.018879         2.679055         0.517309
 H         0.276576        -0.231962         1.881107
 H        -2.627731         1.601762        -0.368825
 H        -2.242512         0.169041         0.517941
 H        -2.115686         1.314307         2.526406
 H        -1.907293         4.227598         1.331584
 H         1.493530         3.654575         3.356220
 H         0.532150         2.109867         3.211803
 H         1.538452         3.972264         1.103189
 H         2.067395         2.213489         1.053105
 H        -0.002421         2.881339        -0.543365
