19
Iteration:  1932
 O         0.040511         0.055165         1.071893
 C        -0.621736         1.256892         0.837853
 C        -1.997286         1.238379         0.259338
 C        -1.633843         1.698916         1.831891
 C        -1.162624         3.198523         1.565285
 O        -0.490845         3.835666         2.669391
 C         0.785336         3.243010         2.783040
 C         1.232242         2.974520         1.289744
 C        -0.056606         2.592339         0.568913
 H         0.347484        -0.244015         0.223786
 H        -2.242807         2.075570        -0.348731
 H        -2.669336         0.324974         0.264729
 H        -2.107387         1.275678         2.644817
 H        -1.769543         3.925147         1.092971
 H         1.284807         3.974029         3.378521
 H         0.689999         2.533762         3.572070
 H         1.660659         3.912159         0.895599
 H         1.943990         2.155907         1.067963
 H        -0.224197         2.845409        -0.468267
