19
Iteration:  4710
 O         0.078542        -0.054475         0.950160
 C        -0.577832         1.246070         0.869356
 C        -1.987992         1.293840         0.305812
 C        -1.782889         1.755380         1.717721
 C        -1.170655         3.209177         1.559634
 O        -0.534105         3.774853         2.708130
 C         0.759355         3.229916         2.788315
 C         1.278317         3.044686         1.361546
 C        -0.035900         2.651426         0.570607
 H         1.001736         0.270027         1.164959
 H        -2.222966         2.039695        -0.497885
 H        -2.472064         0.381086         0.322924
 H        -2.361917         1.160792         2.535621
 H        -1.941224         3.917556         1.244201
 H         1.361222         3.804531         3.392292
 H         0.680098         2.241077         3.270726
 H         1.747082         3.885894         1.020994
 H         1.915075         2.206473         1.300414
 H         0.041271         2.861274        -0.553430
