19
Iteration:  3934
 O         0.072279         0.021194         0.892507
 C        -0.621595         1.226555         0.812891
 C        -2.057970         1.211071         0.321084
 C        -1.699158         1.797480         1.722812
 C        -1.158243         3.215647         1.606290
 O        -0.518815         3.793872         2.701115
 C         0.803951         3.266721         2.780130
 C         1.242710         2.993645         1.352507
 C        -0.036321         2.587900         0.628459
 H         0.641377         0.102759         1.741822
 H        -2.468614         1.819468        -0.417351
 H        -2.489773         0.162691         0.093951
 H        -1.973370         1.228871         2.621487
 H        -1.781234         4.034830         1.327214
 H         1.291831         3.940456         3.407875
 H         0.813475         2.203223         3.217772
 H         1.454617         3.982830         0.870599
 H         2.156041         2.320563         1.203412
 H         0.068263         3.036375        -0.449356
