19
Iteration:  1779charge 0 multiplicity 1
 O         0.114615         0.107538         0.980793
 C        -0.631760         1.289761         0.841435
 C        -2.048173         1.178432         0.450621
 C        -1.692946         1.839009         1.737861
 C        -1.201018         3.256039         1.493105
 O        -0.585594         3.777607         2.674359
 C         0.774864         3.233834         2.826872
 C         1.290964         2.860714         1.345027
 C         0.016382         2.617846         0.513594
 H         0.675519        -0.061638         0.227998
 H        -2.540041         1.559469        -0.497390
 H        -2.372558        -0.001564         0.630936
 H        -1.965492         1.472293         2.776559
 H        -1.930109         4.031840         1.241086
 H         1.328652         4.048079         3.271297
 H         0.611932         2.429821         3.539320
 H         1.828633         3.681950         0.745559
 H         1.933494         1.915570         1.425537
 H         0.114250         2.922497        -0.533602
