19
Iteration:  1895
 O         0.168164         0.139783         1.058107
 C        -0.700221         1.231265         0.802357
 C        -2.115170         1.096386         0.307774
 C        -1.751660         1.826812         1.685416
 C        -1.143563         3.275335         1.573855
 O        -0.551588         3.701926         2.732549
 C         0.826400         3.331419         2.852697
 C         1.349410         2.896163         1.254693
 C        -0.034370         2.643925         0.586274
 H         0.248385        -0.379965         0.288602
 H        -2.609017         1.704681        -0.440552
 H        -2.688228         0.255099         0.519687
 H        -2.335071         1.460107         2.605597
 H        -1.789562         4.096149         1.137219
 H         1.527480         4.218354         3.031914
 H         0.948909         2.393563         3.442562
 H         1.990242         3.717252         0.909513
 H         1.932754         2.058552         1.438695
 H        -0.008062         2.858126        -0.523625
