19
Iteration:  1561
 O         0.073862        -0.014361         1.136768
 C        -0.520216         1.210729         0.957762
 C        -2.060887         1.281976         0.334600
 C        -1.673301         1.790992         1.697925
 C        -1.141378         3.182608         1.504833
 O        -0.555413         3.718240         2.665649
 C         0.816020         3.226228         2.740442
 C         1.219898         3.088515         1.277858
 C        -0.065857         2.675533         0.586153
 H         0.161889        -0.219027         0.176388
 H        -2.341975         2.024064        -0.476376
 H        -2.644292         0.418918         0.476892
 H        -2.134734         1.388331         2.631691
 H        -1.755780         3.911390         0.908748
 H         1.412418         3.830362         3.435155
 H         0.772764         2.173971         3.167015
 H         1.570740         4.032598         0.917161
 H         2.023729         2.253827         1.008569
 H         0.001283         2.905027        -0.457358
