19
Iteration:  4353charge 0 multiplicity 1
 O         0.070121         0.038734         0.826184
 C        -0.612368         1.284799         0.780670
 C        -2.004144         1.195456         0.433480
 C        -1.733062         1.807373         1.721933
 C        -1.120033         3.158563         1.500247
 O        -0.615066         3.762515         2.715448
 C         0.766134         3.290988         2.826174
 C         1.307814         2.956260         1.448855
 C        -0.047256         2.641603         0.562246
 H         0.910499        -0.063952         1.385615
 H        -2.433570         1.778170        -0.432679
 H        -2.397351         0.075211         0.445546
 H        -2.048341         1.505512         2.693894
 H        -1.701016         4.031202         1.129531
 H         1.490302         4.010500         3.403338
 H         0.826859         2.286674         3.298339
 H         1.763667         3.857984         0.960607
 H         1.957780         2.154162         1.419762
 H        -0.091628         2.986686        -0.450313
