19
Iteration:   967charge 0 multiplicity 1
 O         0.028858        -0.140174         0.978517
 C        -0.630049         1.159789         0.810626
 C        -2.156545         1.248035         0.351544
 C        -1.768129         1.846199         1.729599
 C        -1.172362         3.170296         1.554536
 O        -0.530409         3.765071         2.706092
 C         0.904220         3.465515         2.733935
 C         1.329680         3.018618         1.369191
 C        -0.011852         2.574184         0.668558
 H         0.745083        -0.241966         0.313196
 H        -2.394781         1.849233        -0.445067
 H        -2.621134         0.174630         0.251757
 H        -2.124629         1.360236         2.554669
 H        -1.665953         4.065987         1.135275
 H         1.383409         4.410441         2.986021
 H         1.135414         2.824457         3.546013
 H         1.833519         3.788326         0.786046
 H         2.110372         2.363638         1.481526
 H        -0.072651         3.067713        -0.362592
