19
Iteration:  3040
 O         0.072411        -0.003753         0.973659
 C        -0.572924         1.251590         0.832764
 C        -2.022931         1.282450         0.320844
 C        -1.754386         1.835031         1.690568
 C        -1.150990         3.141702         1.610283
 O        -0.531967         3.697449         2.734505
 C         0.824392         3.293107         2.731425
 C         1.182069         3.033816         1.285303
 C         0.044467         2.589618         0.572405
 H         0.102957        -0.114401         1.930162
 H        -2.254206         2.118741        -0.490005
 H        -2.577550         0.274803         0.306670
 H        -2.045452         1.386033         2.667639
 H        -1.864608         3.941137         1.197364
 H         1.363203         4.098588         3.294885
 H         0.910780         2.364068         3.398215
 H         1.620305         3.944685         0.794170
 H         1.975526         2.283925         1.304148
 H        -0.221125         2.932259        -0.452165
