19
Iteration:  4245
 O         0.220112         0.067856         0.833319
 C        -0.654215         1.214908         0.772537
 C        -2.085772         1.163028         0.400406
 C        -1.735090         1.889890         1.759930
 C        -1.170418         3.253293         1.513174
 O        -0.532892         3.825155         2.706981
 C         0.775846         3.138962         2.797013
 C         1.172833         2.966800         1.414477
 C        -0.035725         2.578496         0.566042
 H         0.907479         0.321899         1.547976
 H        -2.373410         1.738268        -0.401743
 H        -2.496007         0.143252         0.661668
 H        -1.971574         1.397356         2.620691
 H        -1.762135         4.151599         1.203904
 H         1.325934         3.780371         3.573786
 H         0.574885         2.261876         3.402661
 H         1.885465         3.883946         1.005767
 H         1.921770         2.101964         1.353753
 H         0.030781         2.930135        -0.497572
