19
Iteration:  3437charge 0 multiplicity 1
 O         0.071496         0.061481         0.848915
 C        -0.695931         1.218894         0.796311
 C        -2.059764         1.196583         0.361771
 C        -1.751359         1.676628         1.761089
 C        -1.162088         3.190959         1.503608
 O        -0.523720         3.830535         2.705932
 C         0.816969         3.297676         2.811025
 C         1.305400         3.004906         1.377896
 C         0.019216         2.618092         0.595691
 H         0.559891        -0.027636         1.664261
 H        -2.209733         1.992469        -0.337338
 H        -2.443152         0.158351         0.264593
 H        -2.167643         1.472424         2.759244
 H        -1.889902         3.983330         1.359437
 H         1.364322         3.896735         3.486698
 H         0.689572         2.378662         3.449914
 H         1.713080         3.859182         0.876273
 H         1.947188         2.102935         1.357920
 H         0.250408         2.929522        -0.448108
