19
Iteration:  4840charge 0 multiplicity 1
 O         0.038064         0.032251         0.847394
 C        -0.620189         1.255705         0.790879
 C        -1.968548         1.181381         0.374413
 C        -1.691747         1.795770         1.768505
 C        -1.177968         3.255936         1.507400
 O        -0.547362         3.779689         2.674296
 C         0.749568         3.189714         2.825916
 C         1.272488         2.995333         1.401269
 C         0.013514         2.649643         0.631888
 H         0.801906         0.058927         1.502052
 H        -2.319941         1.744698        -0.493556
 H        -2.607940         0.213389         0.362771
 H        -2.273860         1.167358         2.587062
 H        -1.807843         4.041866         1.029200
 H         1.284243         3.901762         3.395851
 H         0.644408         2.274653         3.479234
 H         1.653953         3.900603         0.970821
 H         2.038441         2.268470         1.374481
 H         0.059274         3.018466        -0.355484
