19
Iteration:   672
 O         0.206829         0.143681         0.958007
 C        -0.611502         1.299889         0.839389
 C        -2.056384         1.103517         0.554407
 C        -1.837534         1.889733         1.791056
 C        -1.135673         3.266739         1.465646
 O        -0.464665         3.883957         2.537827
 C         0.706345         3.090701         2.820187
 C         1.247475         2.844043         1.400397
 C        -0.012940         2.617016         0.523303
 H        -0.053344        -0.354774         0.209411
 H        -2.688398         1.460727        -0.383555
 H        -2.241564         0.060905         0.699654
 H        -2.037755         1.783169         2.946096
 H        -1.709001         4.047208         0.885538
 H         1.358804         3.589445         3.492969
 H         0.442378         2.212815         3.468705
 H         1.746639         3.829648         1.045851
 H         2.014559         2.069133         1.318300
 H        -0.046517         2.992426        -0.541585
