19
Iteration:  3429charge 0 multiplicity 1
 O         0.061227         0.041393         0.862461
 C        -0.616566         1.202048         0.835025
 C        -2.040321         1.240939         0.296360
 C        -1.692844         1.726301         1.753480
 C        -1.230943         3.208000         1.576107
 O        -0.482336         3.846372         2.680584
 C         0.797755         3.265331         2.791073
 C         1.272579         2.975250         1.395153
 C         0.005823         2.575787         0.616398
 H         0.423195        -0.142332         1.709920
 H        -2.332881         1.989093        -0.480750
 H        -2.571345         0.337646         0.367146
 H        -2.052773         1.260141         2.596606
 H        -2.174521         3.854103         1.195994
 H         1.333658         4.107331         3.348137
 H         0.802748         2.245504         3.237506
 H         1.535809         3.989869         0.989349
 H         2.095840         2.307156         1.354024
 H        -0.014148         2.985089        -0.367447
