19
Iteration:  2435
 O         0.236207         0.223686         0.966395
 C        -0.654333         1.217390         0.883368
 C        -2.033617         1.198522         0.363218
 C        -1.726060         1.736158         1.763757
 C        -1.182774         3.235552         1.522924
 O        -0.489369         3.818981         2.654161
 C         0.775441         3.188896         2.748161
 C         1.255910         2.881428         1.261947
 C        -0.138006         2.605478         0.582000
 H         0.115080        -0.259283         1.752707
 H        -2.204229         1.919042        -0.395900
 H        -2.603506         0.280197         0.362758
 H        -2.460612         1.644560         2.635346
 H        -2.021907         3.968574         1.485618
 H         1.418101         3.795588         3.327978
 H         0.762929         2.138687         3.392619
 H         1.924286         3.605671         0.838797
 H         1.920917         1.976849         1.401289
 H        -0.101009         2.956759        -0.434017
