19
Iteration:  3616charge 0 multiplicity 1
 O         0.146093         0.045372         0.925794
 C        -0.602025         1.213572         0.869249
 C        -2.022011         1.262046         0.295947
 C        -1.746138         1.783141         1.753008
 C        -1.146769         3.217423         1.537120
 O        -0.547413         3.744926         2.690395
 C         0.852684         3.228200         2.737797
 C         1.236411         2.931411         1.340053
 C        -0.133846         2.674530         0.653248
 H         0.613877         0.241366         1.724198
 H        -2.327426         1.991778        -0.413988
 H        -2.569208         0.300827         0.178970
 H        -2.365320         1.297407         2.567541
 H        -1.877426         4.028886         1.229338
 H         1.447484         4.056028         3.247331
 H         0.756922         2.299235         3.308677
 H         1.823321         3.828753         0.960113
 H         2.046198         2.089785         1.303796
 H        -0.135672         2.956463        -0.396927
