19
Iteration:  3700charge 0 multiplicity 1
 O         0.131506         0.117847         0.870668
 C        -0.662947         1.255310         0.840993
 C        -2.016645         1.145970         0.405736
 C        -1.711619         1.833511         1.741807
 C        -1.149791         3.202043         1.513336
 O        -0.523041         3.872665         2.649398
 C         0.716564         3.128169         2.819814
 C         1.267563         2.933422         1.385141
 C        -0.085434         2.620893         0.682912
 H         1.081147         0.343060         1.032023
 H        -2.246746         1.799462        -0.467401
 H        -2.549594         0.142786         0.279825
 H        -2.044013         1.512556         2.766386
 H        -1.842377         3.958840         1.118809
 H         1.519569         3.658450         3.382585
 H         0.556359         2.093335         3.245759
 H         1.798227         3.760666         0.886743
 H         1.872681         1.980845         1.040446
 H         0.072807         2.938467        -0.473071
