19
Iteration:  2294
 O         0.101066         0.070678         0.960012
 C        -0.618547         1.234393         0.705992
 C        -2.021870         1.151089         0.401842
 C        -1.688622         1.759001         1.713170
 C        -1.159300         3.214134         1.526989
 O        -0.573268         3.790184         2.746894
 C         0.802953         3.404877         2.750467
 C         1.248547         2.834850         1.414686
 C         0.009107         2.671534         0.613123
 H        -0.197171        -0.542901         0.298177
 H        -2.552962         1.733620        -0.264683
 H        -2.413998         0.075591         0.482783
 H        -1.997004         1.477497         2.675710
 H        -1.988177         3.956338         1.237392
 H         1.418783         4.409667         2.895663
 H         0.918795         2.701950         3.515493
 H         1.810691         3.518478         0.889371
 H         1.927792         1.945630         1.627309
 H         0.014879         3.176510        -0.371354
