19
Iteration:  2932
 O         0.111133         0.130708         0.845490
 C        -0.687894         1.279710         0.793308
 C        -2.064344         1.089410         0.425203
 C        -1.682227         1.759229         1.733884
 C        -1.133288         3.216615         1.527526
 O        -0.476986         3.928906         2.592518
 C         0.722222         3.180606         2.840439
 C         1.251653         2.836248         1.421465
 C        -0.049609         2.678212         0.631229
 H         0.790501         0.261974         1.485937
 H        -2.415859         1.487512        -0.585757
 H        -2.528701         0.176688         0.626663
 H        -1.943159         1.412830         2.716329
 H        -1.940884         3.747983         1.156704
 H         1.485336         3.737944         3.451725
 H         0.588883         2.258359         3.410208
 H         1.794220         3.788277         1.225718
 H         2.020622         2.073524         1.223475
 H        -0.026499         3.091328        -0.397507
