19
Iteration:  2118
 O         0.114004         0.021170         1.063914
 C        -0.606940         1.218203         0.813000
 C        -2.079226         1.255845         0.377442
 C        -1.737482         1.772470         1.807294
 C        -1.228366         3.177476         1.596912
 O        -0.493412         3.783118         2.616738
 C         0.761132         3.204187         2.712658
 C         1.285565         3.020886         1.322663
 C        -0.018974         2.659744         0.558611
 H         0.765003        -0.207542         0.388521
 H        -2.289933         2.088420        -0.369133
 H        -2.582309         0.401049         0.149457
 H        -2.145660         1.274271         2.779518
 H        -2.048263         3.779636         1.152986
 H         1.446327         3.989681         3.292658
 H         0.806585         2.390799         3.420255
 H         1.687196         3.845380         0.848815
 H         2.118864         2.270103         1.479170
 H         0.053050         3.054663        -0.482159
