19
Iteration:   710charge 0 multiplicity 1
 O         0.170743         0.089404         1.113252
 C        -0.617612         1.232551         0.826662
 C        -2.075352         1.286161         0.406402
 C        -1.657873         1.825879         1.793484
 C        -1.149183         3.212716         1.545917
 O        -0.494105         3.878095         2.590413
 C         0.734298         3.167561         2.791637
 C         1.168162         2.851904         1.296423
 C        -0.062991         2.586708         0.505404
 H         0.560626        -0.343130         0.341299
 H        -2.307383         2.012306        -0.318803
 H        -2.621684         0.269025         0.330955
 H        -1.917114         1.340300         2.667134
 H        -1.884492         3.937622         1.246698
 H         1.499184         3.855634         3.287700
 H         0.560526         2.257552         3.437968
 H         1.661491         3.789711         1.095242
 H         1.936888         2.050136         1.106833
 H        -0.134763         2.858406        -0.630321
