19
Iteration:  1454charge 0 multiplicity 1
 O         0.263164         0.138477         0.892059
 C        -0.600005         1.233863         0.777819
 C        -2.115847         1.123656         0.472337
 C        -1.712679         1.777378         1.743310
 C        -1.206592         3.207354         1.547072
 O        -0.414474         4.007411         2.552692
 C         0.724282         3.172472         2.833335
 C         1.220999         2.855275         1.404025
 C        -0.077476         2.656792         0.607672
 H        -0.291524        -0.623464         1.013731
 H        -2.765345         1.532575        -0.296629
 H        -2.450671         0.156094         0.577588
 H        -2.122004         1.238175         2.651950
 H        -1.993012         3.950383         1.176527
 H         1.400287         3.714953         3.411442
 H         0.347466         2.239206         3.497338
 H         1.785427         3.714880         1.012840
 H         1.820947         1.853397         1.432638
 H         0.162934         3.048503        -0.420127
