19
Iteration:  1109charge 0 multiplicity 1
 O         0.301029         0.165351         0.942264
 C        -0.694665         1.253467         0.820037
 C        -2.130347         1.205571         0.437928
 C        -1.682183         1.853075         1.785266
 C        -1.170581         3.230387         1.512596
 O        -0.498190         3.810010         2.588480
 C         0.692199         3.168438         2.795490
 C         1.228928         2.859618         1.396275
 C        -0.006588         2.632967         0.564701
 H        -0.130732        -0.700538         1.168810
 H        -2.554445         1.794754        -0.350761
 H        -2.565641         0.212610         0.629935
 H        -2.042251         1.417492         2.770156
 H        -1.930277         3.880884         1.071774
 H         1.438818         3.793373         3.378698
 H         0.685648         2.111878         3.255098
 H         1.770056         3.714952         0.877503
 H         1.928983         2.079654         1.276156
 H        -0.026484         3.120511        -0.511912
