19
Iteration:   286charge 0 multiplicity 1
 O         0.139456         0.021418         1.078467
 C        -0.673127         1.218537         0.738130
 C        -2.101646         1.194875         0.420263
 C        -1.652979         1.799847         1.775400
 C        -1.153794         3.213154         1.525501
 O        -0.493949         3.941224         2.578103
 C         0.791150         3.254940         2.808246
 C         1.217330         2.909069         1.391692
 C        -0.046016         2.586548         0.533671
 H         0.491265        -0.218396         0.194611
 H        -2.493039         1.821417        -0.421692
 H        -2.618910         0.236883         0.512498
 H        -2.049750         1.182123         2.689279
 H        -1.977827         3.878960         1.191161
 H         1.398388         4.014472         3.409933
 H         0.571230         2.290424         3.323520
 H         1.919743         3.626778         0.991761
 H         1.938215         2.068920         1.593940
 H         0.174007         3.042302        -0.494149
