19
Iteration:  2113
 O         0.126543         0.012858         1.075701
 C        -0.677814         1.219824         0.814989
 C        -2.110761         1.286002         0.389879
 C        -1.674318         1.758098         1.792474
 C        -1.221379         3.187280         1.583819
 O        -0.515380         3.758508         2.610902
 C         0.822299         3.236536         2.713475
 C         1.305594         3.038444         1.383098
 C        -0.040539         2.629884         0.529081
 H         0.607724        -0.269808         0.226591
 H        -2.376199         1.997025        -0.368733
 H        -2.580292         0.237393         0.142129
 H        -2.047866         1.299916         2.633880
 H        -1.950154         3.882080         1.082535
 H         1.228380         3.990708         3.365446
 H         0.773235         2.298497         3.387663
 H         1.738707         4.003899         0.861273
 H         2.158263         2.397270         1.512882
 H         0.082567         3.008954        -0.495312
