19
Iteration:  4696
 O         0.091145         0.022521         0.890437
 C        -0.601342         1.193664         0.853223
 C        -1.994888         1.225437         0.286048
 C        -1.732337         1.845133         1.722835
 C        -1.215086         3.212617         1.594510
 O        -0.565135         3.803250         2.726238
 C         0.789374         3.199534         2.825033
 C         1.226220         2.970645         1.336014
 C         0.030204         2.592919         0.600911
 H         0.901325        -0.033562         1.383608
 H        -2.173113         1.987003        -0.505877
 H        -2.503388         0.165460         0.201709
 H        -2.264449         1.578884         2.667302
 H        -1.755026         4.056421         1.128510
 H         1.286681         4.073104         3.322595
 H         0.792224         2.264554         3.381316
 H         1.470375         3.924484         0.829797
 H         2.080753         2.378700         1.291660
 H        -0.029780         2.970957        -0.382393
