19
Iteration:   577charge 0 multiplicity 1
 O         0.168777        -0.020222         0.933557
 C        -0.604625         1.214508         0.803951
 C        -2.159603         1.118560         0.405710
 C        -1.740213         1.855872         1.684569
 C        -1.179532         3.250534         1.554381
 O        -0.583489         3.869622         2.671274
 C         0.872991         3.304974         2.773191
 C         1.330147         2.940863         1.351784
 C         0.014289         2.606527         0.671561
 H        -0.494417        -0.683803         0.805380
 H        -2.533585         1.708461        -0.523893
 H        -2.745327         0.301649         0.581628
 H        -2.278091         1.517116         2.653025
 H        -1.872404         3.927162         1.038823
 H         1.373092         4.158429         3.270990
 H         1.111104         2.481345         3.450286
 H         1.832814         3.823758         0.790080
 H         2.087162         2.197980         1.545510
 H         0.011213         2.940547        -0.422261
