19
Iteration:  3034charge 0 multiplicity 1
 O         0.074742        -0.037464         0.999544
 C        -0.597156         1.234994         0.830400
 C        -2.061390         1.288721         0.274567
 C        -1.718595         1.815656         1.679358
 C        -1.175089         3.171898         1.601215
 O        -0.496720         3.731369         2.741125
 C         0.817850         3.270585         2.792924
 C         1.210373         3.077177         1.298790
 C        -0.030862         2.592547         0.531540
 H         0.154445        -0.317127         1.967134
 H        -2.215577         2.001020        -0.416352
 H        -2.402814         0.250054         0.196938
 H        -1.862063         1.458316         2.713010
 H        -1.934852         3.870344         1.257765
 H         1.439479         4.065093         3.178746
 H         0.959503         2.348807         3.335958
 H         1.537965         4.014242         0.905526
 H         1.987807         2.280529         1.210342
 H        -0.004521         2.966133        -0.499304
