19
Iteration:  2587charge 0 multiplicity 1
 O         0.250098         0.156384         0.911825
 C        -0.651466         1.240450         0.769751
 C        -2.148449         1.140133         0.538486
 C        -1.710673         1.861607         1.805465
 C        -1.139288         3.223373         1.450893
 O        -0.569203         3.891642         2.676494
 C         0.775233         3.203090         2.773604
 C         1.231857         2.840888         1.395648
 C        -0.008273         2.571500         0.548441
 H         0.382907        -0.194886         0.017007
 H        -2.715860         1.801892        -0.301142
 H        -2.579503         0.143686         0.744634
 H        -1.988002         1.412229         2.833249
 H        -1.847282         3.811780         0.925830
 H         1.445206         3.828550         3.240061
 H         0.593596         2.354423         3.393356
 H         1.840640         3.659724         1.082986
 H         1.963030         1.960380         1.548799
 H         0.077892         2.953865        -0.475691
