19
Iteration:  2449
 O         0.280140         0.186708         1.039229
 C        -0.675799         1.235642         0.848767
 C        -2.083620         1.190084         0.301467
 C        -1.829267         1.806042         1.736082
 C        -1.216605         3.197286         1.634989
 O        -0.462340         3.790577         2.662140
 C         0.863500         3.203963         2.719250
 C         1.217465         2.884162         1.309226
 C        -0.064375         2.667787         0.572535
 H        -0.025472        -0.436131         1.766595
 H        -2.382634         1.784706        -0.557130
 H        -2.593037         0.299860         0.347926
 H        -2.162695         1.083775         2.511172
 H        -1.808071         3.910108         1.015305
 H         1.576421         4.047230         3.172976
 H         0.763745         2.229383         3.353859
 H         1.655153         3.781119         0.852658
 H         1.739825         1.955469         1.157881
 H        -0.123593         2.960647        -0.500373
