19
Iteration:  3326
 O         0.170933         0.173828         0.941711
 C        -0.555726         1.255606         0.815850
 C        -1.982988         1.182477         0.407180
 C        -1.792499         1.798381         1.752499
 C        -1.155324         3.235951         1.506097
 O        -0.512381         3.844161         2.697442
 C         0.705640         3.087275         2.775663
 C         1.258982         2.859480         1.322959
 C        -0.128936         2.649675         0.564935
 H         0.960921         0.387384         1.512089
 H        -2.436307         1.801099        -0.408177
 H        -2.448531         0.222686         0.394531
 H        -2.203766         1.672916         2.773584
 H        -1.895506         3.957128         1.026258
 H         1.441366         3.520167         3.396098
 H         0.473072         2.046700         3.257159
 H         1.863714         3.686729         1.108628
 H         1.994992         2.005730         1.251449
 H        -0.225151         3.053227        -0.475682
