19
Iteration:  4430
 O         0.168219         0.068157         0.911353
 C        -0.572204         1.220810         0.793155
 C        -1.987975         1.177285         0.394739
 C        -1.731840         1.858898         1.756476
 C        -1.180010         3.212820         1.470511
 O        -0.502991         3.802398         2.721634
 C         0.673278         3.104064         2.856969
 C         1.198005         2.984334         1.305892
 C        -0.057607         2.658353         0.571940
 H         0.863228         0.148803         1.592648
 H        -2.236280         1.940741        -0.513301
 H        -2.647375         0.282646         0.459844
 H        -2.236173         1.564129         2.756250
 H        -1.876779         4.049498         1.170358
 H         1.505851         3.589226         3.540716
 H         0.599633         2.137340         3.285668
 H         1.615729         3.929524         0.849072
 H         1.966566         2.288169         1.200560
 H        -0.046173         3.003736        -0.461591
