19
Iteration:  2651charge 0 multiplicity 1
 O         0.171565         0.002114         0.795989
 C        -0.642779         1.183864         0.778334
 C        -2.140566         1.290770         0.434512
 C        -1.552809         1.733182         1.854589
 C        -1.210036         3.205845         1.500512
 O        -0.575190         3.863100         2.552847
 C         0.756214         3.269872         2.851814
 C         1.306619         2.962200         1.445336
 C        -0.034308         2.625816         0.608744
 H        -0.011215        -0.400981         1.706017
 H        -2.430373         2.136591        -0.186331
 H        -2.877350         0.539050         0.502210
 H        -1.935866         1.142252         2.755544
 H        -1.868999         3.858550         1.021390
 H         1.393970         4.046877         3.213527
 H         0.765952         2.232196         3.459135
 H         1.772827         3.777611         0.974014
 H         2.079125         2.211629         1.543036
 H         0.036620         2.819620        -0.460598
