19
Iteration:   562charge 0 multiplicity 1
 O         0.089008         0.068599         0.975164
 C        -0.674104         1.205169         0.818331
 C        -2.091989         1.187026         0.445070
 C        -1.708987         1.817070         1.738213
 C        -1.087220         3.215152         1.442962
 O        -0.524802         3.717415         2.664917
 C         0.784605         3.384958         2.807724
 C         1.288810         2.976519         1.403563
 C         0.004738         2.620997         0.542298
 H        -0.348790        -0.792975         0.640166
 H        -2.622126         1.658095        -0.398454
 H        -2.428806         0.072492         0.691768
 H        -1.963787         1.482678         2.764485
 H        -1.685067         4.074918         1.078644
 H         1.413614         4.149418         3.224022
 H         0.720906         2.486533         3.492397
 H         1.839841         3.822959         0.939464
 H         1.921389         2.060566         1.326757
 H         0.188746         2.993108        -0.569310
