19
Iteration:  4960charge 0 multiplicity 1
 O         0.205717         0.126062         0.845654
 C        -0.643158         1.244922         0.821104
 C        -2.072187         1.187226         0.412519
 C        -1.753395         1.910096         1.709796
 C        -1.175149         3.251255         1.532172
 O        -0.539494         3.786918         2.652227
 C         0.672782         3.121304         2.843071
 C         1.274417         2.891875         1.403941
 C         0.014275         2.597328         0.576296
 H         0.900043         0.252554         1.492205
 H        -2.493182         1.522180        -0.504432
 H        -2.630737         0.195235         0.482225
 H        -1.945932         1.495869         2.829726
 H        -1.777147         4.041227         1.093097
 H         1.321289         3.612654         3.459216
 H         0.619667         2.102136         3.232115
 H         1.507716         3.902070         1.131734
 H         2.148756         2.316353         1.436678
 H         0.128691         2.969753        -0.405841
