19
Iteration:  1916
 O         0.061038         0.027249         1.083846
 C        -0.584872         1.207830         0.826346
 C        -1.996111         1.217273         0.348255
 C        -1.735254         1.801868         1.684816
 C        -1.192068         3.198338         1.576770
 O        -0.522976         3.794784         2.682452
 C         0.850665         3.288353         2.793440
 C         1.231271         2.907526         1.306381
 C        -0.090951         2.724619         0.607428
 H         0.402292        -0.358282         0.218719
 H        -2.322545         1.848365        -0.546032
 H        -2.269661         0.215598         0.238787
 H        -2.038088         1.275361         2.667855
 H        -2.028964         3.924325         1.280945
 H         1.604610         4.141606         3.083512
 H         0.976619         2.251968         3.260557
 H         1.764790         3.694148         0.755332
 H         1.817393         1.975043         1.298726
 H        -0.060207         3.195808        -0.419850
