19
Iteration:  1667charge 0 multiplicity 1
 O         0.195082         0.049952         0.927856
 C        -0.619654         1.204231         0.783659
 C        -2.065682         1.171913         0.502952
 C        -1.755987         1.851297         1.751661
 C        -1.155835         3.259601         1.510146
 O        -0.507311         3.869076         2.569539
 C         0.739378         3.163694         2.875755
 C         1.242670         3.014417         1.425760
 C        -0.003549         2.563917         0.539553
 H        -0.169154        -0.700196         0.459049
 H        -2.651402         1.531150        -0.395479
 H        -2.601789         0.294132         0.689388
 H        -1.931789         1.456787         2.738596
 H        -1.856555         3.962984         1.036998
 H         1.440979         3.838827         3.453298
 H         0.592744         2.234283         3.284270
 H         1.648046         4.029332         1.053390
 H         2.034856         2.336926         1.292363
 H         0.171452         3.031149        -0.436903
