19
Iteration:  3331charge 0 multiplicity 1
 O         0.202534         0.145943         0.947959
 C        -0.601557         1.292039         0.811922
 C        -2.016443         1.173162         0.381233
 C        -1.755467         1.843857         1.747755
 C        -1.143624         3.228531         1.527518
 O        -0.527244         3.832549         2.719848
 C         0.680952         3.078849         2.802550
 C         1.255216         2.829109         1.288593
 C        -0.100074         2.651610         0.578166
 H         0.975998         0.419068         1.421479
 H        -2.454477         1.681358        -0.466019
 H        -2.431738         0.112467         0.557735
 H        -2.295600         1.656652         2.714557
 H        -1.759186         4.007140         0.978154
 H         1.462989         3.723187         3.351596
 H         0.405240         2.141043         3.166970
 H         1.872058         3.732327         0.885727
 H         2.019939         2.064572         1.257148
 H        -0.176878         3.105554        -0.397515
