19
Iteration:  2444
 O         0.264118         0.210547         1.015795
 C        -0.693003         1.214018         0.876536
 C        -2.053630         1.193976         0.335128
 C        -1.797863         1.783245         1.745579
 C        -1.213248         3.199595         1.608229
 O        -0.467243         3.801402         2.655943
 C         0.846043         3.205026         2.725446
 C         1.207352         2.893115         1.308365
 C        -0.055031         2.649808         0.552456
 H         0.046256        -0.351251         1.734739
 H        -2.274872         1.855931        -0.519829
 H        -2.700096         0.217142         0.319695
 H        -2.314768         1.126692         2.464736
 H        -1.841485         3.994502         1.168000
 H         1.469641         3.851094         3.206865
 H         0.754078         2.285938         3.331961
 H         1.827985         3.679957         0.841744
 H         1.771840         1.929031         1.156757
 H        -0.116184         3.027221        -0.464061
