19
Iteration:  3933
 O         0.071839         0.021478         0.896059
 C        -0.613928         1.229262         0.804548
 C        -2.053356         1.211409         0.328960
 C        -1.690813         1.804494         1.719695
 C        -1.166654         3.207841         1.610105
 O        -0.512730         3.795886         2.701170
 C         0.793360         3.259506         2.781288
 C         1.241250         3.003769         1.345410
 C        -0.038605         2.580476         0.630000
 H         0.638522         0.093675         1.749572
 H        -2.477212         1.863043        -0.460275
 H        -2.520451         0.142685         0.099584
 H        -1.974112         1.272834         2.584116
 H        -1.822954         4.020851         1.334175
 H         1.313432         3.931547         3.406375
 H         0.810363         2.204717         3.212966
 H         1.487293         3.976688         0.882018
 H         2.152139         2.289955         1.223968
 H         0.041294         3.026519        -0.422658
