19
Iteration:  2081
 O         0.102977        -0.015296         0.949904
 C        -0.644028         1.224365         0.785374
 C        -2.055418         1.122254         0.462545
 C        -1.719122         1.865901         1.745676
 C        -1.131226         3.244507         1.531175
 O        -0.545556         3.799500         2.697965
 C         0.791469         3.247363         2.776544
 C         1.264440         3.015715         1.396051
 C         0.006649         2.622730         0.534711
 H        -0.287459        -0.555729         0.288342
 H        -2.414641         1.617995        -0.411087
 H        -2.301010        -0.015322         0.577151
 H        -2.115965         1.598721         2.665167
 H        -1.637275         4.115657         1.013321
 H         1.339515         4.106469         3.213962
 H         0.831421         2.387823         3.321896
 H         1.542566         4.086465         1.068602
 H         2.143756         2.401391         1.414954
 H         0.079526         3.056366        -0.490139
