19
Iteration:  3412charge 0 multiplicity 1
 O         0.106798        -0.097826         0.893860
 C        -0.616995         1.202934         0.794703
 C        -1.978357         1.318917         0.343595
 C        -1.690485         1.736097         1.739452
 C        -1.110759         3.174623         1.617998
 O        -0.543971         3.858551         2.656603
 C         0.785936         3.194367         2.817920
 C         1.197159         3.050174         1.295808
 C        -0.075288         2.683789         0.630761
 H         0.309477        -0.215320         1.800047
 H        -2.140937         2.104841        -0.408423
 H        -2.430885         0.304556         0.351311
 H        -2.373488         1.380421         2.611287
 H        -1.695932         3.935254         1.262853
 H         1.480825         3.844727         3.335478
 H         0.534970         2.429301         3.560962
 H         1.523578         4.033555         0.937031
 H         1.919100         2.178346         1.129742
 H        -0.013592         2.961543        -0.469204
