19
Iteration:  4905charge 0 multiplicity 1
 O         0.063624         0.042321         0.875568
 C        -0.611338         1.255312         0.803268
 C        -2.039889         1.200391         0.251227
 C        -1.691384         1.692468         1.760482
 C        -1.188602         3.218879         1.544594
 O        -0.534989         3.835812         2.728554
 C         0.800856         3.288542         2.874214
 C         1.256116         2.963758         1.381472
 C        -0.010900         2.654336         0.582172
 H         0.487589         0.048527         1.792782
 H        -2.340097         1.964318        -0.428583
 H        -2.515706         0.111556         0.129648
 H        -2.332332         1.124457         2.654899
 H        -1.885958         3.944959         1.122845
 H         1.465687         3.911438         3.334190
 H         0.853817         2.273813         3.298806
 H         1.915101         3.715030         0.980519
 H         1.876020         2.132206         1.297276
 H         0.088280         2.906545        -0.412953
