19
Iteration:  4068charge 0 multiplicity 1
 O         0.161362         0.037737         0.780485
 C        -0.590756         1.263725         0.832535
 C        -2.097580         1.164732         0.477798
 C        -1.705594         1.851473         1.784254
 C        -1.183448         3.223198         1.453060
 O        -0.597426         3.829157         2.666190
 C         0.736727         3.139854         2.838072
 C         1.262611         2.913852         1.399345
 C         0.041065         2.692273         0.591943
 H         0.889822        -0.051616         1.490381
 H        -2.510702         1.788006        -0.295355
 H        -2.466113         0.239045         0.541666
 H        -2.076925         1.534473         2.887456
 H        -1.778426         4.076558         1.117170
 H         1.431923         3.695218         3.490367
 H         0.487443         2.144026         3.286152
 H         1.660445         3.933722         0.927568
 H         2.034628         2.150335         1.224253
 H        -0.002373         3.094366        -0.540856
