19
Iteration:  3900
 O         0.147337         0.014462         0.928604
 C        -0.595691         1.289533         0.859711
 C        -2.062055         1.195865         0.377806
 C        -1.667274         1.854160         1.760830
 C        -1.185745         3.272953         1.561831
 O        -0.515822         3.768170         2.645627
 C         0.711677         3.090003         2.769072
 C         1.233155         2.974335         1.292259
 C        -0.062471         2.711685         0.603925
 H         0.700492        -0.126238         1.721258
 H        -2.261468         2.005070        -0.262465
 H        -2.353254         0.101906         0.143732
 H        -1.904993         1.440524         2.697408
 H        -1.981685         3.899348         1.202944
 H         1.328439         3.640590         3.436288
 H         0.611015         2.050565         3.237043
 H         1.671176         3.940255         1.028684
 H         1.987846         2.119911         1.139589
 H        -0.111072         3.208298        -0.434304
