19
Iteration:  1446charge 0 multiplicity 1
 O         0.239138         0.109215         0.882494
 C        -0.624272         1.244691         0.797438
 C        -2.083284         1.135182         0.463757
 C        -1.654432         1.766624         1.754627
 C        -1.216505         3.188486         1.619568
 O        -0.459999         4.025808         2.543489
 C         0.679529         3.154461         2.742781
 C         1.286276         2.854711         1.411181
 C        -0.059552         2.654033         0.631777
 H        -0.412541        -0.624099         0.879865
 H        -2.425323         1.625396        -0.519593
 H        -2.595380         0.220226         0.820667
 H        -2.038263         1.363735         2.631996
 H        -1.755995         3.920747         1.111169
 H         1.346080         3.748955         3.435146
 H         0.335531         2.283815         3.462545
 H         1.790740         3.793179         1.167994
 H         1.782626         1.956256         1.362995
 H        -0.161918         3.049815        -0.421297
