19
Iteration:   945
 O         0.053525        -0.003025         0.926377
 C        -0.656900         1.135147         0.896252
 C        -2.081315         1.298844         0.376270
 C        -1.714170         1.777492         1.844349
 C        -1.112754         3.132777         1.485511
 O        -0.560477         3.828876         2.669513
 C         0.827673         3.421655         2.760861
 C         1.274797         2.943888         1.363441
 C         0.020625         2.535715         0.624130
 H         0.466577        -0.091459         0.048237
 H        -2.287975         2.001603        -0.364280
 H        -2.676131         0.334607         0.247093
 H        -2.306711         1.532310         2.663550
 H        -1.861212         3.886759         1.254774
 H         1.309771         4.331214         3.086678
 H         1.101261         2.684023         3.438069
 H         1.795445         3.644312         0.720895
 H         1.943589         2.162321         1.407216
 H         0.179132         2.812711        -0.429862
