19
Iteration:   740
 O         0.001307         0.037110         1.120136
 C        -0.678414         1.223455         0.845632
 C        -2.102825         1.116938         0.328545
 C        -1.752869         1.843403         1.708735
 C        -1.139522         3.167287         1.571783
 O        -0.541043         3.800650         2.658084
 C         0.862809         3.320224         2.761871
 C         1.388915         2.985122         1.268103
 C        -0.007529         2.676819         0.602974
 H         0.414107        -0.473029         0.325307
 H        -2.524798         1.719373        -0.557589
 H        -2.468578         0.027959         0.302775
 H        -1.932637         1.362139         2.563729
 H        -1.841807         3.968152         1.357468
 H         1.424066         3.994972         3.390493
 H         0.937768         2.430181         3.374607
 H         1.977854         3.914985         0.880245
 H         2.119949         2.177338         1.194993
 H        -0.072059         2.941894        -0.517893
