19
Iteration:  1352charge 0 multiplicity 1
 O         0.065566         0.084948         1.113280
 C        -0.588288         1.178556         0.807646
 C        -2.043785         1.263668         0.279157
 C        -1.659876         1.762725         1.789036
 C        -1.190372         3.184925         1.558491
 O        -0.509548         3.768239         2.665706
 C         0.853153         3.302823         2.764428
 C         1.235781         2.969563         1.263804
 C        -0.112509         2.609760         0.619652
 H         0.720521        -0.276450         0.435851
 H        -2.225520         1.956500        -0.515806
 H        -2.678806         0.345134         0.149915
 H        -2.179380         1.372380         2.586575
 H        -1.971391         3.936063         1.225607
 H         1.450773         4.088029         3.338275
 H         0.909342         2.332012         3.456746
 H         1.803521         3.824146         0.726650
 H         1.862831         2.028756         1.373686
 H        -0.266817         2.942108        -0.410827
