19
Iteration:   415charge 0 multiplicity 1
 O         0.210431         0.073523         1.025395
 C        -0.656357         1.163420         0.924345
 C        -2.065586         1.183861         0.323893
 C        -1.826186         1.746959         1.693747
 C        -1.146858         3.308572         1.589967
 O        -0.498961         3.860799         2.618399
 C         0.814792         3.268222         2.714707
 C         1.320240         2.939037         1.313817
 C        -0.049982         2.614223         0.645610
 H        -0.079613        -0.778630         0.750557
 H        -2.388895         1.885996        -0.467390
 H        -2.638543         0.317733         0.428291
 H        -2.535411         1.521584         2.642096
 H        -1.850618         4.090556         1.214365
 H         1.385596         3.788316         3.564004
 H         0.552819         2.316005         3.154490
 H         1.694876         3.810141         0.840604
 H         2.052077         2.145441         1.334063
 H         0.004986         2.732360        -0.424523
