19
Iteration:   539charge 0 multiplicity 1
 O         0.106748         0.085468         1.070093
 C        -0.635936         1.272848         0.857966
 C        -2.091390         1.218761         0.458111
 C        -1.666118         1.855094         1.724984
 C        -1.176705         3.204698         1.452742
 O        -0.597601         3.752061         2.637227
 C         0.812531         3.244023         2.744368
 C         1.292181         2.885341         1.370946
 C         0.041532         2.631043         0.569446
 H         0.217052        -0.274871         0.190827
 H        -2.546283         1.866291        -0.252956
 H        -2.564706         0.144829         0.555215
 H        -1.870145         1.508982         2.658150
 H        -1.975630         3.855753         1.052680
 H         1.405699         4.054666         3.195311
 H         0.719408         2.376769         3.408210
 H         1.678308         3.762863         0.904256
 H         2.004964         2.054401         1.169528
 H         0.123396         2.973425        -0.525069
