19
Iteration:  4894
 O         0.097595        -0.010184         0.860483
 C        -0.646489         1.239353         0.829754
 C        -2.077174         1.249707         0.259607
 C        -1.700773         1.784068         1.688573
 C        -1.116476         3.136009         1.563500
 O        -0.544882         3.810984         2.717689
 C         0.808554         3.290967         2.855074
 C         1.248422         2.992658         1.380853
 C         0.011503         2.625694         0.621550
 H         0.672623        -0.059104         1.696568
 H        -2.345087         1.901103        -0.557145
 H        -2.602580         0.187645         0.295633
 H        -2.240041         1.377876         2.713653
 H        -1.866247         3.816482         1.159929
 H         1.319281         4.005225         3.386974
 H         0.722767         2.427079         3.558825
 H         1.501137         3.878333         0.831337
 H         1.964045         2.245033         1.387443
 H        -0.047119         3.047234        -0.309511
