19
Iteration:  2385
 O         0.046522        -0.000518         0.828498
 C        -0.686369         1.255833         0.758121
 C        -2.070898         1.110693         0.506072
 C        -1.612479         1.828050         1.802826
 C        -1.139101         3.218457         1.474515
 O        -0.547825         3.934345         2.586886
 C         0.704281         3.163783         2.850049
 C         1.287247         2.976561         1.406265
 C         0.013110         2.582629         0.599652
 H         0.971953         0.220376         1.190751
 H        -2.744105         1.616405        -0.301073
 H        -2.180926         0.068708         0.769482
 H        -1.692657         1.351671         2.820407
 H        -1.773225         4.027278         1.046046
 H         1.338285         3.844654         3.638496
 H         0.455386         2.240044         3.192536
 H         1.638222         4.040356         1.118983
 H         2.108921         2.266334         1.240300
 H         0.193003         3.213595        -0.334631
