19
Iteration:  4616
 O         0.198275         0.049024         0.835448
 C        -0.639428         1.168770         0.780491
 C        -2.022392         1.224043         0.386072
 C        -1.681650         1.794019         1.802778
 C        -1.222715         3.233531         1.523420
 O        -0.545343         3.912787         2.636019
 C         0.719002         3.142041         2.815942
 C         1.268859         2.863651         1.430491
 C        -0.087531         2.717869         0.611041
 H         0.853066         0.088298         1.519434
 H        -2.394279         1.901595        -0.473537
 H        -2.479888         0.237114         0.351637
 H        -2.119143         1.302380         2.629824
 H        -1.936864         4.000387         1.131314
 H         1.484375         3.714934         3.542388
 H         0.514410         2.308103         3.510847
 H         1.756512         3.839694         1.046129
 H         2.083239         2.024188         1.252883
 H         0.031375         2.934154        -0.456648
