19
Iteration:  2413
 O         0.225429         0.077086         0.865506
 C        -0.630955         1.255968         0.856473
 C        -2.066578         1.203594         0.520488
 C        -1.717433         1.832930         1.787655
 C        -1.160703         3.258117         1.495433
 O        -0.557397         3.847029         2.600754
 C         0.725832         3.124788         2.747565
 C         1.190412         2.919972         1.348347
 C        -0.004748         2.633454         0.546529
 H         0.385713        -0.245007         1.818603
 H        -2.418033         1.783998        -0.272002
 H        -2.500313         0.205797         0.657996
 H        -2.004526         1.275146         2.724283
 H        -1.796414         4.110715         1.119956
 H         1.379246         3.694514         3.346665
 H         0.611948         2.119273         3.446282
 H         1.790843         3.752371         1.084508
 H         1.957425         2.107913         1.178096
 H         0.127191         3.132847        -0.398509
