19
Iteration:  4640
 O         0.124037         0.115323         0.871152
 C        -0.592197         1.259891         0.779079
 C        -2.026539         1.228189         0.411179
 C        -1.623089         1.761252         1.770149
 C        -1.149402         3.239267         1.540142
 O        -0.593884         3.791570         2.649831
 C         0.737114         3.197698         2.811633
 C         1.179901         2.888860         1.412466
 C         0.005087         2.673008         0.532262
 H         0.446407        -0.120752         1.733227
 H        -2.567622         1.850260        -0.345513
 H        -2.507707         0.116217         0.539523
 H        -2.012149         1.143538         2.536964
 H        -1.735465         4.038122         1.012826
 H         1.303204         3.863018         3.611199
 H         0.731601         2.261848         3.401319
 H         1.780435         3.716642         0.910308
 H         1.844145         2.020097         1.440415
 H         0.114623         3.091448        -0.459922
