19
Iteration:  1930charge 0 multiplicity 1
 O         0.035620         0.052197         1.071968
 C        -0.621116         1.271024         0.833945
 C        -1.977354         1.232320         0.260815
 C        -1.635968         1.702679         1.813987
 C        -1.151351         3.200045         1.567314
 O        -0.499702         3.827404         2.664253
 C         0.795537         3.246149         2.794748
 C         1.220605         2.960237         1.264543
 C        -0.077196         2.603280         0.590100
 H         0.360807        -0.269126         0.251703
 H        -2.231926         2.036055        -0.298685
 H        -2.646107         0.302985         0.223968
 H        -2.095365         1.302905         2.695787
 H        -1.773362         3.953173         1.070986
 H         1.384950         4.039725         3.433791
 H         0.702907         2.513252         3.638096
 H         1.709399         3.894885         0.885494
 H         1.885451         2.172660         1.112548
 H        -0.256327         2.853600        -0.483420
