19
Iteration:  2331
 O         0.169720         0.061784         0.879705
 C        -0.615769         1.185631         0.818929
 C        -2.109254         1.217198         0.379261
 C        -1.702238         1.709961         1.784826
 C        -1.181534         3.154171         1.575366
 O        -0.518772         3.931015         2.670197
 C         0.753204         3.423992         2.745521
 C         1.256394         2.811417         1.438447
 C        -0.038372         2.520675         0.624626
 H         0.727127         0.014456         0.066024
 H        -2.494382         2.172630        -0.299766
 H        -2.686533         0.322163         0.316860
 H        -2.297968         1.352988         2.699059
 H        -1.840698         3.907133         1.071939
 H         1.545856         4.275907         3.045114
 H         0.773883         2.576718         3.500690
 H         1.809797         3.729016         0.978090
 H         1.824668         1.908320         1.610988
 H         0.125491         3.040055        -0.379245
