19
Iteration:  1322
 O         0.223554         0.145250         1.099595
 C        -0.597117         1.248862         0.873016
 C        -2.118160         1.229242         0.374539
 C        -1.779950         1.849894         1.736975
 C        -1.221575         3.249869         1.496169
 O        -0.520963         3.732004         2.651753
 C         0.826078         3.125963         2.760886
 C         1.280457         2.940110         1.258677
 C        -0.048057         2.606388         0.612536
 H         0.354908        -0.595458         0.469399
 H        -2.289342         1.852613        -0.452408
 H        -2.583088         0.194886         0.399776
 H        -2.340247         1.570665         2.632765
 H        -1.886255         4.116757         1.208763
 H         1.313709         3.906154         3.196481
 H         0.671645         2.244267         3.418801
 H         1.615959         3.892424         0.932001
 H         2.211405         2.317194         1.133242
 H        -0.153910         2.925643        -0.497878
