19
Iteration:  2739
 O         0.145790         0.086804         1.048840
 C        -0.634514         1.313327         0.854222
 C        -2.095592         1.230407         0.368602
 C        -1.755795         1.796537         1.729801
 C        -1.222940         3.221727         1.522422
 O        -0.506291         3.725277         2.688696
 C         0.743998         3.068167         2.754295
 C         1.278675         3.000811         1.262838
 C         0.049614         2.628349         0.560378
 H         0.853351         0.548069         1.591584
 H        -2.342985         1.904850        -0.440436
 H        -2.541297         0.346174         0.368371
 H        -2.115521         1.587694         2.709063
 H        -1.875052         4.001040         1.186635
 H         1.268179         3.769613         3.308318
 H         0.615109         2.053253         3.249963
 H         1.462336         3.906578         0.825400
 H         2.115825         2.359897         1.051503
 H         0.216937         2.875290        -0.472410
