19
Iteration:  4851charge 0 multiplicity 1
 O         0.015751         0.017819         0.799126
 C        -0.581373         1.256142         0.917982
 C        -2.020738         1.199732         0.349081
 C        -1.737398         1.834214         1.679086
 C        -1.089310         3.203365         1.525428
 O        -0.582982         3.745649         2.687321
 C         0.713580         3.245398         2.818742
 C         1.313034         3.019507         1.403907
 C         0.001917         2.620397         0.641214
 H         0.858116         0.111971         1.390336
 H        -2.207770         1.810755        -0.519946
 H        -2.379132         0.065285         0.625623
 H        -2.155804         1.397747         2.764947
 H        -1.731409         3.967074         1.026292
 H         1.349578         3.957771         3.251178
 H         0.804110         2.266956         3.396807
 H         1.669436         3.977390         1.113159
 H         2.077307         2.302827         1.291406
 H        -0.161403         2.843187        -0.347017
