19
Iteration:  3066
 O         0.125829         0.042189         0.899461
 C        -0.674209         1.241710         0.935374
 C        -2.137493         1.177320         0.286564
 C        -1.812987         1.853109         1.701121
 C        -1.244834         3.208480         1.505251
 O        -0.515895         3.681741         2.717095
 C         0.901557         3.312337         2.782354
 C         1.343669         2.979450         1.358807
 C        -0.017085         2.632742         0.623540
 H         0.791920         0.112403         1.584545
 H        -2.292872         1.786298        -0.546093
 H        -2.410430         0.108647         0.134768
 H        -2.176765         1.629238         2.722763
 H        -1.902693         3.916221         1.214256
 H         1.340020         4.199470         3.214930
 H         1.032495         2.539613         3.569248
 H         1.864498         3.781101         0.900911
 H         2.018397         2.100163         1.250771
 H        -0.080866         2.840902        -0.421399
