19
Iteration:    46charge 0 multiplicity 1
 O        -0.071448        -0.054260         0.924577
 C        -0.601584         1.195706         0.796472
 C        -1.979854         1.209868         0.378772
 C        -1.704356         1.752909         1.802468
 C        -1.201878         3.174083         1.590260
 O        -0.526927         3.881856         2.581455
 C         0.852272         3.420007         2.829835
 C         1.204213         2.971431         1.427510
 C         0.113414         2.511546         0.575437
 H         0.686890        -0.148086         0.358571
 H        -2.372274         1.809831        -0.494546
 H        -2.502272         0.340026         0.434230
 H        -2.211251         1.358824         2.604339
 H        -1.940580         3.848610         1.161691
 H         1.310323         4.326682         3.097500
 H         0.839900         2.832809         3.735959
 H         1.548319         3.931446         0.966979
 H         2.021593         2.232535         1.435264
 H         0.253450         2.856814        -0.396354
