19
Iteration:  1394
 O         0.100008         0.018353         0.963823
 C        -0.732985         1.175404         0.790316
 C        -2.115827         1.137527         0.438036
 C        -1.670286         1.802677         1.749605
 C        -1.127608         3.194849         1.479989
 O        -0.538985         3.797692         2.671234
 C         0.799830         3.343476         2.788418
 C         1.355286         3.031754         1.376698
 C        -0.011605         2.608692         0.633467
 H         0.202857        -0.338574         0.016603
 H        -2.432202         1.861007        -0.343039
 H        -2.554014         0.107412         0.663745
 H        -2.187287         1.561649         2.601136
 H        -1.719324         3.999764         1.045768
 H         1.239631         4.172401         3.499110
 H         0.743609         2.446854         3.373776
 H         1.841766         3.888547         0.761519
 H         2.092841         2.233652         1.316773
 H         0.085525         2.939117        -0.361229
