19
Iteration:  2556charge 0 multiplicity 1
 O         0.086481         0.094657         1.062855
 C        -0.639184         1.252890         0.817558
 C        -2.044516         1.189851         0.410660
 C        -1.673280         1.774817         1.793356
 C        -1.170270         3.122160         1.527801
 O        -0.480006         3.852215         2.620885
 C         0.795466         3.190718         2.779503
 C         1.220557         2.950612         1.344107
 C        -0.079072         2.709502         0.487491
 H         0.905484        -0.049590         0.523806
 H        -2.516049         1.903684        -0.349209
 H        -2.446655         0.235196         0.528556
 H        -1.976988         1.255965         2.737910
 H        -2.046319         3.729692         1.144600
 H         1.496463         3.787663         3.238551
 H         0.668498         2.268753         3.251363
 H         1.971196         3.680035         1.052780
 H         1.789296         1.963012         1.255160
 H        -0.215022         3.257973        -0.437527
