19
Iteration:  4202
 O         0.078262         0.065184         0.901507
 C        -0.621135         1.252164         0.856098
 C        -2.003495         1.204219         0.324550
 C        -1.716968         1.759132         1.798810
 C        -1.185018         3.228306         1.534798
 O        -0.520962         3.764520         2.665356
 C         0.734136         3.141746         2.813442
 C         1.226601         3.013812         1.359210
 C        -0.035601         2.717238         0.584210
 H         0.900222         0.169948         1.467596
 H        -2.213095         1.819085        -0.486631
 H        -2.432904         0.203963         0.533794
 H        -2.016233         1.404503         2.717209
 H        -1.957349         4.003061         1.184930
 H         1.468176         3.764994         3.451475
 H         0.846184         2.166228         3.199059
 H         1.803971         3.884955         0.775366
 H         1.989396         2.166291         1.215364
 H         0.155325         2.806966        -0.575374
