19
Iteration:  1783
 O         0.122958         0.107456         0.995210
 C        -0.594951         1.288670         0.820293
 C        -2.071520         1.191727         0.464493
 C        -1.668779         1.848703         1.735913
 C        -1.219986         3.251140         1.502983
 O        -0.579399         3.762638         2.683746
 C         0.754516         3.247587         2.807512
 C         1.286172         2.866463         1.330063
 C         0.018152         2.604394         0.531772
 H         0.631336        -0.048406         0.158945
 H        -2.630812         1.534575        -0.388321
 H        -2.335476         0.142597         0.518964
 H        -2.011170         1.534782         2.687693
 H        -1.844121         4.122326         1.169881
 H         1.328292         3.994970         3.366848
 H         0.498039         2.344017         3.442718
 H         1.749601         3.604794         0.779786
 H         2.005111         2.009602         1.471077
 H         0.118836         2.723307        -0.573612
