19
Iteration:  2499charge 0 multiplicity 1
 O         0.141133         0.085522         1.066661
 C        -0.602376         1.232063         0.920314
 C        -2.033829         1.207060         0.419967
 C        -1.784468         1.899259         1.700555
 C        -1.197413         3.262410         1.472297
 O        -0.535910         3.587247         2.710620
 C         0.846521         3.239441         2.713047
 C         1.284354         3.078085         1.248256
 C         0.004274         2.594681         0.614637
 H        -0.434850        -0.699030         0.864228
 H        -2.471980         1.840216        -0.409057
 H        -2.324005         0.061571         0.309972
 H        -2.315128         1.583159         2.674214
 H        -1.798667         4.112132         1.089607
 H         1.362153         3.961847         3.210607
 H         0.977301         2.342182         3.219313
 H         1.404313         4.055401         0.800937
 H         2.118559         2.358694         0.962767
 H        -0.147251         2.924833        -0.410586
