19
Iteration:  3885charge 0 multiplicity 1
 O         0.112505         0.157941         0.897363
 C        -0.605680         1.251951         0.804904
 C        -1.990405         1.207306         0.432629
 C        -1.725332         1.793165         1.757340
 C        -1.202432         3.226001         1.503116
 O        -0.498828         3.795088         2.707433
 C         0.745975         3.061221         2.770714
 C         1.235448         2.982693         1.359934
 C        -0.039541         2.632620         0.538758
 H         0.599404         0.327484         1.681366
 H        -2.570402         1.560527        -0.549123
 H        -2.439632         0.294044         0.679759
 H        -2.146104         1.417893         2.721388
 H        -1.784317         4.127797         1.169816
 H         1.454838         3.635126         3.478075
 H         0.589549         2.071198         3.179161
 H         1.632007         3.929934         0.970148
 H         2.014061         2.232181         1.262342
 H         0.066881         2.762610        -0.476305
