19
Iteration:   373
 O         0.138824         0.126719         0.971015
 C        -0.644982         1.277964         0.821460
 C        -2.091070         1.124001         0.438696
 C        -1.665830         1.837308         1.778306
 C        -1.154409         3.205186         1.456721
 O        -0.480686         3.832657         2.573721
 C         0.716241         3.243497         2.820414
 C         1.274517         2.906696         1.410440
 C         0.012645         2.579540         0.576117
 H        -0.527443        -0.512982         0.809837
 H        -2.593666         1.773819        -0.333530
 H        -2.570941         0.203153         0.509722
 H        -2.013507         1.370359         2.754915
 H        -1.887443         3.952086         1.105076
 H         1.300661         4.041534         3.394012
 H         0.755868         2.324470         3.427006
 H         1.685944         3.744126         0.877515
 H         2.084972         2.143048         1.402447
 H         0.129605         2.989236        -0.482818
