19
Iteration:  2769charge 0 multiplicity 1
 O         0.121350         0.069330         0.998331
 C        -0.585810         1.273217         0.851624
 C        -1.999015         1.075759         0.360497
 C        -1.684854         1.849349         1.728524
 C        -1.190707         3.302961         1.517404
 O        -0.446903         3.793810         2.690562
 C         0.714385         3.013937         2.752571
 C         1.200573         3.016891         1.289438
 C        -0.071437         2.743950         0.568137
 H         0.188523        -0.052257         1.995184
 H        -2.243340         1.519308        -0.606313
 H        -2.498937         0.203901         0.592741
 H        -2.106293         1.691857         2.715231
 H        -1.987233         4.062743         1.122550
 H         1.319015         3.572114         3.557770
 H         0.567926         2.025305         3.143107
 H         1.689907         3.938591         0.891750
 H         1.926948         2.230914         0.993004
 H         0.010996         3.150056        -0.441216
