19
Iteration:   604
 O         0.198019         0.077983         0.878107
 C        -0.640652         1.232031         0.986392
 C        -2.023571         1.261545         0.300526
 C        -1.780772         1.805978         1.784341
 C        -1.128320         3.131254         1.576252
 O        -0.431133         3.897004         2.565768
 C         0.781611         3.326423         2.791779
 C         1.164383         2.918555         1.351384
 C        -0.075943         2.511104         0.658434
 H        -0.326405        -0.727309         0.962433
 H        -2.202380         1.935013        -0.475000
 H        -2.665726         0.281087         0.275304
 H        -2.241456         1.327322         2.633867
 H        -1.925374         3.812580         1.180430
 H         1.402679         4.077872         3.331701
 H         0.908556         2.401255         3.398129
 H         1.634759         3.693042         0.831842
 H         1.894126         2.089004         1.540535
 H        -0.049041         2.739850        -0.365164
