19
Iteration:   570
 O         0.148499         0.006056         0.954177
 C        -0.662324         1.210489         0.827158
 C        -2.143593         1.151745         0.411005
 C        -1.723762         1.871177         1.690640
 C        -1.126081         3.217085         1.498531
 O        -0.553036         3.789429         2.678609
 C         0.835739         3.353695         2.776599
 C         1.312163         2.972959         1.393072
 C         0.038779         2.632158         0.604659
 H        -0.539720        -0.687351         0.715826
 H        -2.616975         1.610725        -0.382080
 H        -2.630488         0.169733         0.708357
 H        -2.008982         1.463655         2.571866
 H        -1.907974         3.882901         1.077186
 H         1.364911         4.215323         3.284517
 H         0.876424         2.447086         3.410004
 H         1.786330         3.728307         0.873944
 H         1.988393         2.081613         1.387598
 H         0.048327         2.916680        -0.383220
