19
Iteration:   687charge 0 multiplicity 1
 O         0.244406         0.150967         0.989944
 C        -0.649738         1.191838         0.894774
 C        -2.111374         1.166760         0.512179
 C        -1.711170         1.885433         1.797510
 C        -1.149818         3.278868         1.452195
 O        -0.489217         3.910322         2.569212
 C         0.673270         3.073012         2.728532
 C         1.273265         2.882288         1.347563
 C        -0.044649         2.623038         0.631986
 H         0.339599        -0.380192         0.128749
 H        -2.430900         1.809030        -0.349878
 H        -2.711274         0.249695         0.732830
 H        -2.252109         1.480612         2.540801
 H        -1.852853         4.004750         1.123684
 H         1.308368         3.625929         3.467956
 H         0.457497         2.028122         3.055399
 H         1.936412         3.705130         0.940267
 H         1.873782         1.944018         1.367170
 H         0.148885         2.813366        -0.517461
