19
Iteration:  2021charge 0 multiplicity 1
 O         0.298226         0.205894         0.988745
 C        -0.614859         1.223657         0.814703
 C        -2.221632         1.189240         0.433186
 C        -1.614871         1.786519         1.738017
 C        -1.173324         3.200826         1.577791
 O        -0.489448         3.904696         2.562896
 C         0.728617         3.172869         2.817926
 C         1.208491         2.826756         1.425776
 C        -0.072310         2.617093         0.533449
 H        -0.079481        -0.557290         0.539508
 H        -2.448728         1.870340        -0.467372
 H        -2.876682         0.413007         0.432650
 H        -2.052422         1.432272         2.729592
 H        -1.791369         3.879191         1.082616
 H         1.411598         3.753048         3.344130
 H         0.750216         2.179447         3.428639
 H         1.790617         3.618976         1.042948
 H         1.806710         1.882256         1.218434
 H        -0.070948         3.030883        -0.457643
