19
Iteration:  4262
 O         0.114958         0.114307         0.830112
 C        -0.566116         1.276511         0.796763
 C        -2.063590         1.148270         0.467827
 C        -1.668657         1.804269         1.758606
 C        -1.143278         3.235875         1.483748
 O        -0.553450         3.766840         2.659713
 C         0.697665         3.176687         2.841956
 C         1.301046         2.885726         1.370163
 C        -0.038509         2.732969         0.587376
 H         0.802411         0.050423         1.582997
 H        -2.653544         1.619345        -0.438471
 H        -2.576374         0.119593         0.525356
 H        -2.254501         1.539431         2.754583
 H        -1.956978         3.803190         1.089290
 H         1.315050         3.881515         3.339901
 H         0.544680         2.262186         3.546445
 H         1.651198         3.775336         1.099252
 H         2.043370         2.131636         1.224396
 H         0.131181         3.061799        -0.438993
