19
Iteration:  2016
 O         0.284356         0.183279         0.989939
 C        -0.594242         1.246198         0.811058
 C        -2.224543         1.172119         0.431845
 C        -1.638074         1.782219         1.772243
 C        -1.103831         3.209184         1.551708
 O        -0.512098         3.889440         2.577325
 C         0.727557         3.153198         2.776409
 C         1.231115         2.815316         1.433152
 C        -0.074123         2.681697         0.537260
 H        -0.113200        -0.612051         0.515953
 H        -2.418888         1.719751        -0.437596
 H        -2.963437         0.243172         0.438270
 H        -2.073874         1.503277         2.685930
 H        -1.923189         3.874282         1.067142
 H         1.546712         3.855470         3.307483
 H         0.511919         2.232039         3.403142
 H         1.876677         3.689729         1.090126
 H         1.796528         1.920227         1.377307
 H        -0.217966         3.165339        -0.478464
