19
Iteration:  1829
 O         0.136669         0.078559         1.048673
 C        -0.610432         1.251371         0.829845
 C        -1.950446         1.168658         0.350404
 C        -1.684043         1.770374         1.745568
 C        -1.186864         3.266746         1.563694
 O        -0.445848         3.900332         2.627988
 C         0.729231         3.059950         2.758636
 C         1.178771         3.031696         1.357699
 C        -0.036148         2.606220         0.570964
 H        -0.202039        -0.712219         0.508973
 H        -2.511140         1.811584        -0.280884
 H        -2.370613         0.283438         0.387652
 H        -2.191331         1.286150         2.588489
 H        -1.970670         4.021413         1.359131
 H         1.335667         3.762392         3.405110
 H         0.425347         2.085738         3.202192
 H         1.461481         4.013108         0.981574
 H         1.939740         2.349180         1.165040
 H         0.012719         3.046787        -0.453576
