19
Iteration:  4301charge 0 multiplicity 1
 O         0.143148        -0.007916         0.803096
 C        -0.672670         1.182312         0.792202
 C        -2.064129         1.211154         0.373762
 C        -1.620965         1.751068         1.751619
 C        -1.143339         3.184082         1.565480
 O        -0.547821         3.910747         2.677007
 C         0.698071         3.216695         2.858572
 C         1.228724         2.955786         1.402603
 C         0.017529         2.655435         0.612875
 H         0.802449         0.150895         1.503081
 H        -2.343427         1.901971        -0.407951
 H        -2.590278         0.340250         0.566879
 H        -2.231936         1.370552         2.593508
 H        -1.839367         3.994745         1.185238
 H         1.410109         3.941292         3.362191
 H         0.558662         2.211472         3.421676
 H         1.612051         4.040736         1.009115
 H         1.978070         2.140358         1.060185
 H         0.051078         3.044572        -0.458694
