19
Iteration:    25
 O         0.062463        -0.084134         0.991790
 C        -0.640570         1.138160         0.882127
 C        -2.075870         1.304420         0.340605
 C        -1.714416         1.719993         1.765034
 C        -1.150924         3.183300         1.533250
 O        -0.562285         3.913112         2.600016
 C         0.808888         3.369144         2.789857
 C         1.309010         2.992787         1.370485
 C         0.008015         2.542818         0.651668
 H         0.774553        -0.068686         0.340070
 H        -2.327267         2.130598        -0.415712
 H        -2.635179         0.429288         0.201957
 H        -2.149524         1.372024         2.637045
 H        -1.932471         3.836946         1.098032
 H         1.381552         4.086527         3.316612
 H         0.704881         2.408844         3.373504
 H         1.795637         3.886713         0.833339
 H         2.124699         2.202217         1.411265
 H        -0.021600         2.903461        -0.446965
