19
Iteration:  2536charge 0 multiplicity 1
 O         0.101040         0.029272         1.107788
 C        -0.611440         1.241913         0.831673
 C        -2.096612         1.159922         0.344333
 C        -1.698297         1.755994         1.710339
 C        -1.194234         3.289431         1.614849
 O        -0.468507         3.845246         2.675451
 C         0.802611         3.194957         2.735626
 C         1.258190         2.997038         1.220724
 C        -0.067187         2.612045         0.646132
 H         0.655776        -0.230760         0.298169
 H        -2.354814         1.859693        -0.434007
 H        -2.458286         0.228790         0.305809
 H        -2.111262         1.284915         2.595706
 H        -1.963277         4.026644         1.163919
 H         1.405160         3.896410         3.403361
 H         0.600639         2.139587         3.207865
 H         1.557043         3.986749         0.814100
 H         2.164846         2.400210         1.125228
 H        -0.080907         2.864754        -0.436712
