19
Iteration:   935
 O         0.065202         0.045617         0.927789
 C        -0.666405         1.230381         0.846236
 C        -2.041044         1.263676         0.421199
 C        -1.685153         1.786815         1.827863
 C        -1.175815         3.144150         1.571177
 O        -0.522973         3.836186         2.609203
 C         0.824247         3.374242         2.746111
 C         1.268460         2.890746         1.397351
 C        -0.022050         2.521343         0.612348
 H         0.260560        -0.343264         0.017010
 H        -2.143060         1.982299        -0.353968
 H        -2.493494         0.206526         0.224580
 H        -2.088139         1.479081         2.707661
 H        -1.795545         3.756096         0.843455
 H         1.480289         4.190696         2.985436
 H         0.754384         2.698488         3.555285
 H         1.735549         3.812372         0.969083
 H         1.958295         2.149722         1.587578
 H        -0.121833         2.885358        -0.380529
