19
Iteration:   454
 O         0.154469         0.096077         1.150783
 C        -0.636402         1.237812         0.809391
 C        -2.127435         1.155888         0.454311
 C        -1.638717         1.898869         1.700917
 C        -1.143432         3.332868         1.449534
 O        -0.587582         3.695408         2.675601
 C         0.770522         3.175273         2.758930
 C         1.289747         2.961815         1.315442
 C        -0.006737         2.652161         0.518993
 H        -0.074448        -0.527379         0.409950
 H        -2.623583         1.678929        -0.349789
 H        -2.417976         0.022292         0.645123
 H        -2.067597         1.385830         2.487984
 H        -1.797552         4.142743         1.088568
 H         1.349938         3.924498         3.202988
 H         0.791160         2.202388         3.328184
 H         1.908744         3.875326         0.961099
 H         1.925790         2.047378         1.263299
 H         0.097919         3.076086        -0.533000
