19
Iteration:  2123charge 0 multiplicity 1
 O         0.098434         0.035193         1.057547
 C        -0.558687         1.222151         0.818806
 C        -2.029927         1.262368         0.368896
 C        -1.776599         1.752087         1.805500
 C        -1.215986         3.165765         1.584295
 O        -0.497635         3.816544         2.631096
 C         0.744012         3.224752         2.739951
 C         1.258734         2.972032         1.274768
 C        -0.006775         2.666968         0.595005
 H         0.848908        -0.095129         0.442922
 H        -2.244165         2.061554        -0.305688
 H        -2.686659         0.301307         0.213825
 H        -2.143658         1.369507         2.699677
 H        -2.039830         3.828420         1.283430
 H         1.478347         3.863285         3.107194
 H         0.789085         2.214881         3.445013
 H         1.733131         3.936098         0.831451
 H         1.980020         2.148924         1.270675
 H        -0.055604         3.013118        -0.439052
