19
Iteration:  3937
 O         0.076524         0.021480         0.886245
 C        -0.649162         1.219630         0.833222
 C        -2.065500         1.198946         0.308082
 C        -1.729646         1.765183         1.736706
 C        -1.131054         3.235460         1.589699
 O        -0.534352         3.786375         2.703879
 C         0.831679         3.274603         2.776867
 C         1.250995         2.971280         1.369666
 C        -0.026401         2.619772         0.614908
 H         0.613594         0.110649         1.650435
 H        -2.477707         1.825556        -0.412746
 H        -2.380342         0.251589         0.147750
 H        -1.984259         1.145018         2.705933
 H        -1.722656         4.092890         1.241441
 H         1.307949         4.018375         3.454744
 H         0.814803         2.260916         3.258394
 H         1.382066         3.968914         0.856975
 H         2.127767         2.431741         1.157871
 H         0.120844         3.009427        -0.447140
