19
Iteration:  3303
 O         0.173237         0.064737         0.917712
 C        -0.579082         1.295997         0.871432
 C        -2.084299         1.247236         0.336340
 C        -1.656753         1.778226         1.782428
 C        -1.222362         3.251272         1.599132
 O        -0.485439         3.792917         2.568616
 C         0.682148         3.093776         2.830905
 C         1.248637         2.963465         1.312379
 C        -0.043955         2.641280         0.589733
 H         0.534591        -0.010280         1.827983
 H        -2.572951         1.751274        -0.566707
 H        -2.496579         0.324859         0.510443
 H        -2.099116         1.408022         2.664394
 H        -1.966508         3.941310         1.144195
 H         1.324981         3.661187         3.467572
 H         0.512651         2.046504         3.347532
 H         1.607051         3.954539         1.054338
 H         2.171075         2.340588         1.151390
 H         0.102756         3.068909        -0.450479
