19
Iteration:  3619charge 0 multiplicity 1
 O         0.138546         0.055184         0.925236
 C        -0.602284         1.220199         0.860671
 C        -2.016699         1.254866         0.291297
 C        -1.736211         1.795202         1.766215
 C        -1.192190         3.203535         1.540313
 O        -0.538178         3.750655         2.691941
 C         0.836677         3.234739         2.735203
 C         1.280543         2.918386         1.349878
 C        -0.135474         2.661802         0.638936
 H         0.589990         0.201767         1.780197
 H        -2.341803         2.017736        -0.434964
 H        -2.486185         0.321332         0.232277
 H        -2.275985         1.323745         2.524787
 H        -1.806570         4.023213         1.187823
 H         1.416068         3.955738         3.299048
 H         0.835527         2.283758         3.336388
 H         1.686437         3.834525         0.933646
 H         1.908483         2.151437         1.218855
 H        -0.092977         2.987914        -0.338084
