19
Iteration:  4542charge 0 multiplicity 1
 O         0.083930         0.046105         0.860615
 C        -0.656861         1.266102         0.744575
 C        -2.008562         1.165275         0.386094
 C        -1.692658         1.721229         1.774563
 C        -1.179058         3.235828         1.533673
 O        -0.605620         3.816947         2.683220
 C         0.810182         3.223029         2.862612
 C         1.323348         2.978444         1.402095
 C         0.016720         2.659841         0.549041
 H         0.455462         0.009165         1.738854
 H        -2.443633         1.885684        -0.443133
 H        -2.520462         0.129841         0.220105
 H        -2.118282         1.281213         2.607861
 H        -2.008560         3.927368         1.186007
 H         1.496638         3.996170         3.436354
 H         0.643402         2.340344         3.469199
 H         1.756233         3.870627         0.862529
 H         2.018757         2.260920         1.508618
 H        -0.039083         2.956168        -0.518061
