19
Iteration:  3427charge 0 multiplicity 1
 O         0.062083         0.027924         0.860814
 C        -0.595869         1.206142         0.844242
 C        -2.033965         1.257013         0.287336
 C        -1.677220         1.751031         1.747417
 C        -1.240975         3.205645         1.598251
 O        -0.482524         3.847418         2.668844
 C         0.792407         3.259812         2.792574
 C         1.261016         2.977911         1.393932
 C        -0.006149         2.574198         0.624817
 H         0.402662        -0.149376         1.770237
 H        -2.385784         1.930175        -0.489323
 H        -2.634874         0.339794         0.347876
 H        -2.060026         1.173152         2.575846
 H        -2.118033         3.809008         1.166765
 H         1.341989         4.052591         3.275123
 H         0.827566         2.234484         3.254370
 H         1.536544         3.947295         1.008625
 H         2.158416         2.365570         1.336629
 H        -0.078337         2.974122        -0.380741
