19
Iteration:  3540
 O         0.101165        -0.007909         0.814816
 C        -0.596131         1.239352         0.768426
 C        -2.040377         1.220565         0.478400
 C        -1.588946         1.839031         1.785220
 C        -1.174920         3.220031         1.540812
 O        -0.594093         3.854655         2.656272
 C         0.732506         3.146966         2.766698
 C         1.222324         2.982082         1.378921
 C         0.012174         2.612166         0.639135
 H         0.543426        -0.165422         1.706617
 H        -2.385858         1.759801        -0.366945
 H        -2.629624         0.254902         0.427245
 H        -2.144041         1.384079         2.693472
 H        -1.707462         4.080869         0.977123
 H         1.216500         3.978677         3.376355
 H         0.599044         2.170062         3.279957
 H         1.759199         3.891642         0.989982
 H         2.006564         2.345248         1.196616
 H         0.080035         3.091995        -0.308053
