19
Iteration:  4579charge 0 multiplicity 1
 O         0.118774        -0.004070         0.798157
 C        -0.612726         1.233724         0.813218
 C        -2.025097         1.175610         0.407534
 C        -1.734682         1.844897         1.817728
 C        -1.208022         3.256150         1.455604
 O        -0.571284         3.804952         2.644349
 C         0.784019         3.204643         2.886648
 C         1.295256         2.958055         1.485013
 C        -0.038978         2.621896         0.536315
 H         0.936487         0.263616         1.166728
 H        -2.367755         1.737942        -0.391775
 H        -2.417317         0.186792         0.563710
 H        -2.292013         1.484318         2.761136
 H        -1.834223         3.994661         0.958509
 H         1.208285         3.937666         3.416593
 H         0.741743         2.226789         3.425340
 H         1.609871         3.938212         1.188849
 H         2.219586         2.253558         1.265006
 H         0.164886         3.081842        -0.457671
