19
Iteration:  2218
 O         0.215178         0.034743         1.059843
 C        -0.632259         1.195753         0.805024
 C        -2.013873         1.188447         0.341203
 C        -1.646423         1.826051         1.791796
 C        -1.194455         3.264368         1.573994
 O        -0.490273         3.852896         2.632073
 C         0.738348         3.085768         2.734775
 C         1.202570         3.008748         1.332967
 C        -0.082200         2.717489         0.598286
 H        -0.258987        -0.690133         0.518209
 H        -2.336796         1.713982        -0.514129
 H        -2.409275         0.074399         0.441658
 H        -2.156225         1.602330         2.695415
 H        -1.881417         4.025605         1.146792
 H         1.356083         3.790093         3.435815
 H         0.481053         2.186623         3.168647
 H         1.644781         3.905283         1.070154
 H         1.822713         2.093949         1.078470
 H        -0.059201         3.125663        -0.434181
