19
Iteration:  2586
 O         0.246624         0.157216         0.917249
 C        -0.659502         1.235206         0.766267
 C        -2.142279         1.149009         0.536016
 C        -1.708626         1.852435         1.808785
 C        -1.146774         3.239337         1.446543
 O        -0.574123         3.888288         2.677290
 C         0.774580         3.201946         2.763536
 C         1.234138         2.838652         1.401575
 C        -0.003431         2.569800         0.549721
 H         0.432821        -0.173308         0.047516
 H        -2.710020         1.814420        -0.262737
 H        -2.578287         0.112380         0.747835
 H        -1.979953         1.376078         2.834876
 H        -1.846763         3.827841         0.942622
 H         1.484943         3.869743         3.222022
 H         0.594804         2.296802         3.398915
 H         1.842941         3.652983         1.074016
 H         1.959199         1.964983         1.491599
 H         0.116139         2.966103        -0.468971
