19
Iteration:  4988charge 0 multiplicity 1
 O         0.097761         0.063456         0.887038
 C        -0.581022         1.248660         0.839366
 C        -1.978886         1.145453         0.413286
 C        -1.716553         1.861216         1.745475
 C        -1.215988         3.250257         1.505942
 O        -0.511560         3.820797         2.635680
 C         0.670860         3.081658         2.841525
 C         1.279338         2.954910         1.426249
 C        -0.057777         2.701299         0.522633
 H         0.993947         0.066341         1.123399
 H        -2.366521         1.771280        -0.470298
 H        -2.412825         0.113942         0.313369
 H        -1.974712         1.557418         2.733908
 H        -1.859960         4.065789         1.100881
 H         1.425372         3.555809         3.634418
 H         0.564589         1.996705         3.179155
 H         1.720838         3.976520         1.250294
 H         2.096943         2.154962         1.601458
 H        -0.120027         3.137195        -0.561409
