19
Iteration:  1889charge 0 multiplicity 1
 O         0.175837         0.210498         1.046513
 C        -0.696728         1.175181         0.830475
 C        -2.141220         1.124778         0.324171
 C        -1.772760         1.864909         1.685837
 C        -1.088364         3.246520         1.499047
 O        -0.565396         3.690666         2.739159
 C         0.849534         3.323796         2.850411
 C         1.309021         2.890118         1.302471
 C        -0.032974         2.606427         0.579701
 H         0.158868        -0.380256         0.247953
 H        -2.533710         1.787421        -0.472758
 H        -2.551228         0.021862         0.516665
 H        -2.134209         1.489626         2.592005
 H        -1.731758         4.026996         1.144427
 H         1.380448         4.169984         3.265969
 H         1.067468         2.498065         3.529205
 H         1.770972         3.702700         0.666241
 H         2.032343         1.959739         1.321462
 H        -0.092518         2.991106        -0.430256
