19
Iteration:  1882charge 0 multiplicity 1
 O         0.203889         0.218745         1.041124
 C        -0.708797         1.242086         0.826774
 C        -2.136232         1.160958         0.396649
 C        -1.792761         1.867462         1.669652
 C        -1.083236         3.189033         1.437534
 O        -0.543697         3.673902         2.746280
 C         0.879029         3.308690         2.786873
 C         1.246455         2.888503         1.380491
 C        -0.039043         2.567014         0.583249
 H         0.127438        -0.449424         0.268096
 H        -2.393523         1.685712        -0.603679
 H        -2.463970         0.181699         0.410211
 H        -2.051292         1.543701         2.694771
 H        -1.704640         4.047836         1.032022
 H         1.262432         4.173107         3.347799
 H         1.010186         2.511457         3.567801
 H         1.586757         3.666116         0.743531
 H         1.973130         2.064317         1.190486
 H        -0.041560         3.073022        -0.406170
