19
Iteration:  1638
 O         0.227588         0.196804         1.051812
 C        -0.603049         1.222997         0.906684
 C        -2.004494         1.270581         0.394446
 C        -1.659250         1.782779         1.799735
 C        -1.160065         3.248528         1.504325
 O        -0.576024         3.854855         2.593645
 C         0.732088         3.139466         2.757144
 C         1.216905         2.845852         1.304036
 C        -0.079184         2.619847         0.571601
 H         0.026126        -0.338574         0.300872
 H        -2.506834         1.868802        -0.411898
 H        -2.470123         0.282292         0.466941
 H        -1.956557         1.342432         2.749072
 H        -1.935441         3.898433         1.052392
 H         1.355130         3.687748         3.455827
 H         0.611666         2.024372         3.215495
 H         1.899269         3.513374         0.903798
 H         1.591212         1.780887         1.330079
 H        -0.096480         3.030242        -0.432356
