19
Iteration:  3060
 O         0.109302         0.059887         0.916524
 C        -0.679446         1.227091         0.900728
 C        -2.110966         1.207520         0.296536
 C        -1.775962         1.815807         1.747282
 C        -1.203277         3.206238         1.490884
 O        -0.545990         3.664772         2.732600
 C         0.865126         3.311929         2.762354
 C         1.401697         2.983985         1.329953
 C        -0.071911         2.627265         0.647556
 H         0.710907        -0.081023         1.719499
 H        -2.203271         2.027603        -0.534745
 H        -2.334027         0.159202         0.300551
 H        -2.397860         1.574255         2.595591
 H        -2.026152         4.004211         1.020293
 H         1.381115         4.226219         3.172470
 H         1.034928         2.461322         3.443149
 H         1.859076         3.928094         0.834343
 H         2.023294         2.102621         1.226834
 H         0.081594         2.901621        -0.459086
