19
Iteration:  3560charge 0 multiplicity 1
 O         0.077977        -0.011434         0.831491
 C        -0.656937         1.265843         0.833099
 C        -2.064883         1.172214         0.441511
 C        -1.760069         1.811776         1.707240
 C        -1.148166         3.169343         1.473141
 O        -0.509937         3.759747         2.716619
 C         0.779916         3.286691         2.848053
 C         1.304412         3.015315         1.385340
 C        -0.001982         2.697906         0.524985
 H         0.750061        -0.091229         1.579536
 H        -2.548218         1.715470        -0.345486
 H        -2.491792         0.150469         0.469251
 H        -2.040112         1.493902         2.728623
 H        -1.989658         3.906897         1.188868
 H         1.297497         4.025536         3.566871
 H         0.651463         2.304795         3.364224
 H         1.912461         3.924742         1.097198
 H         2.138092         2.293706         1.387023
 H         0.052679         2.736630        -0.567523
