19
Iteration:  2887charge 0 multiplicity 1
 O         0.052161         0.009002         0.768658
 C        -0.638082         1.187859         0.847461
 C        -2.064265         1.286624         0.433544
 C        -1.604894         1.745590         1.844474
 C        -1.066605         3.186301         1.519588
 O        -0.593717         3.843283         2.609463
 C         0.691441         3.289766         2.822143
 C         1.277888         3.000243         1.380760
 C         0.010739         2.551187         0.635357
 H         0.670125        -0.254424         1.422271
 H        -2.531864         1.965297        -0.452996
 H        -2.468666         0.326871         0.502463
 H        -2.164850         1.441580         2.700082
 H        -1.633029         3.880363         0.945338
 H         1.159648         4.010243         3.577629
 H         0.812533         2.327872         3.387155
 H         1.723507         3.928584         0.837525
 H         2.172067         2.371494         1.478208
 H        -0.101575         2.856460        -0.447622
