19
Iteration:  2005
 O         0.237845         0.131762         0.977511
 C        -0.676018         1.244746         0.785178
 C        -2.085057         1.160012         0.471731
 C        -1.709209         1.801789         1.786029
 C        -1.149324         3.255443         1.466652
 O        -0.518959         3.871450         2.628111
 C         0.712522         3.151122         2.776794
 C         1.278999         2.822531         1.352024
 C        -0.034874         2.736566         0.572189
 H        -0.093046        -0.661774         0.451698
 H        -2.568570         1.738154        -0.266384
 H        -2.409227         0.066271         0.717730
 H        -2.002832         1.383761         2.713875
 H        -1.957410         3.998215         1.124312
 H         1.417433         3.859513         3.448717
 H         0.424106         2.250586         3.413360
 H         1.972372         3.642432         0.988318
 H         1.843291         1.935648         1.477474
 H         0.085292         3.143845        -0.480366
