19
Iteration:  1264
 O         0.242520         0.173450         1.078865
 C        -0.658249         1.308934         0.828208
 C        -2.070257         1.209764         0.505649
 C        -1.678387         1.766301         1.752566
 C        -1.156502         3.260249         1.458711
 O        -0.470385         3.789393         2.602466
 C         0.648671         3.044786         2.774130
 C         1.194729         2.930734         1.335254
 C        -0.028567         2.673982         0.516243
 H         0.066858        -0.533204         0.408494
 H        -2.373972         1.785631        -0.345749
 H        -2.529321         0.297782         0.648493
 H        -1.983209         1.562934         2.713679
 H        -1.804321         4.027165         0.988322
 H         1.445518         3.512280         3.376891
 H         0.553219         2.090303         3.349620
 H         1.663377         3.901359         0.943423
 H         1.919900         2.124342         1.327833
 H        -0.071864         2.960242        -0.549358
