19
Iteration:  2659charge 0 multiplicity 1
 O         0.155464         0.001904         0.814218
 C        -0.620433         1.204625         0.770706
 C        -2.129155         1.319605         0.460047
 C        -1.637340         1.712177         1.760158
 C        -1.201404         3.146535         1.533873
 O        -0.574642         3.868539         2.596240
 C         0.798185         3.263795         2.769018
 C         1.283944         2.940634         1.483196
 C        -0.021174         2.589453         0.583622
 H         0.132640        -0.212993         1.787833
 H        -2.376798         2.053108        -0.205349
 H        -2.780820         0.362895         0.429714
 H        -1.829460         1.553043         2.844259
 H        -2.010765         3.869529         1.070513
 H         1.459561         4.100701         3.352007
 H         0.848903         2.533981         3.620667
 H         1.683028         3.885496         0.996866
 H         2.043274         2.176327         1.408147
 H         0.117743         3.087060        -0.405701
