19
Iteration:  1431
 O         0.185435         0.081234         0.874160
 C        -0.625406         1.182879         0.870601
 C        -2.016229         1.185151         0.433546
 C        -1.606260         1.813641         1.892838
 C        -1.148388         3.255515         1.503801
 O        -0.533919         3.946634         2.575460
 C         0.689665         3.216137         2.804472
 C         1.246233         2.888792         1.358130
 C        -0.055971         2.620364         0.587244
 H        -0.303831        -0.754104         0.557175
 H        -2.440430         1.825376        -0.305561
 H        -2.578853         0.272039         0.369410
 H        -2.102629         1.328054         2.812602
 H        -2.067229         3.854456         1.168432
 H         1.312733         3.737529         3.491824
 H         0.412145         2.136058         3.234181
 H         1.763419         3.727607         0.872296
 H         1.976055         1.956995         1.476968
 H         0.062466         2.997212        -0.472635
