19
Iteration:   649charge 0 multiplicity 1
 O         0.155149         0.133130         0.949950
 C        -0.645987         1.218619         0.775701
 C        -2.114831         1.064934         0.535405
 C        -1.586045         1.873576         1.698774
 C        -1.137785         3.338358         1.457757
 O        -0.522094         3.845447         2.613513
 C         0.738569         3.190187         2.802544
 C         1.232550         2.887189         1.434217
 C         0.004415         2.640527         0.548754
 H        -0.341962        -0.672831         0.652307
 H        -2.599012         1.492831        -0.368747
 H        -2.634992         0.141022         0.903156
 H        -2.003908         1.585375         2.773065
 H        -1.871190         4.056406         0.978357
 H         1.411941         3.701257         3.466138
 H         0.498468         2.329879         3.462982
 H         1.856632         3.764089         1.127398
 H         1.812823         1.963847         1.259444
 H         0.111780         2.895091        -0.503262
