19
Iteration:  2322
 O         0.166670         0.066781         0.921735
 C        -0.672424         1.155313         0.812566
 C        -2.114495         1.222384         0.345705
 C        -1.722707         1.672883         1.773260
 C        -1.167545         3.179774         1.561839
 O        -0.521775         3.895574         2.634650
 C         0.838301         3.434091         2.813244
 C         1.251447         2.851840         1.446080
 C        -0.012112         2.606410         0.593530
 H         0.412200         0.004952        -0.031354
 H        -2.660141         1.888122        -0.431340
 H        -2.534035         0.214313         0.280653
 H        -2.226160         1.411562         2.710794
 H        -2.070252         3.687694         1.314605
 H         1.412289         4.275413         3.173828
 H         0.937395         2.697321         3.731152
 H         2.043680         3.410707         0.829468
 H         1.830674         1.957515         1.611834
 H        -0.015546         3.047596        -0.435502
