19
Iteration:  1101
 O         0.266226         0.243686         0.963766
 C        -0.645381         1.220320         0.798554
 C        -2.119427         1.234619         0.499722
 C        -1.632331         1.852778         1.765641
 C        -1.109388         3.185265         1.487636
 O        -0.568553         3.842169         2.641343
 C         0.700713         3.100933         2.817911
 C         1.247036         2.859705         1.333111
 C        -0.051437         2.620186         0.510517
 H        -0.185268        -0.625769         1.223452
 H        -2.601834         1.649558        -0.504812
 H        -2.505445         0.271874         0.606901
 H        -2.013598         1.592751         2.808872
 H        -1.878889         3.910317         1.011075
 H         1.464202         3.606824         3.410987
 H         0.455372         2.161661         3.415181
 H         1.788878         3.832296         1.059061
 H         1.917403         2.000536         1.172857
 H        -0.021210         2.817346        -0.636436
