19
Iteration:  2036
 O         0.286899         0.185251         0.964113
 C        -0.677403         1.208766         0.768049
 C        -2.057604         1.287017         0.419417
 C        -1.730329         1.776766         1.824895
 C        -1.185904         3.251081         1.502312
 O        -0.477663         3.880421         2.603735
 C         0.755154         3.177195         2.820642
 C         1.211144         2.826907         1.354181
 C        -0.072087         2.544705         0.591156
 H         0.125580        -0.654687         0.596934
 H        -2.526562         1.966133        -0.281749
 H        -2.625015         0.220483         0.530741
 H        -2.034155         1.233666         2.723839
 H        -2.105379         3.913614         1.256295
 H         1.431613         3.898756         3.343160
 H         0.416405         2.422093         3.389710
 H         1.649296         3.778358         0.861510
 H         1.974594         2.023962         1.437512
 H         0.091803         2.751705        -0.504400
