19
Iteration:   118
 O         0.259000         0.127050         0.969507
 C        -0.623506         1.240940         0.837345
 C        -2.024367         1.112444         0.448226
 C        -1.741303         1.854789         1.776680
 C        -1.189457         3.253895         1.529222
 O        -0.480304         3.998256         2.567334
 C         0.677741         3.111095         2.785847
 C         1.282571         2.814052         1.379113
 C        -0.059665         2.675116         0.556276
 H        -0.239666        -0.709283         0.799619
 H        -2.439608         1.577073        -0.441225
 H        -2.525749         0.191428         0.634755
 H        -2.251905         1.441314         2.597426
 H        -1.965296         3.928236         1.182483
 H         1.398246         3.643170         3.477564
 H         0.288154         2.241439         3.319944
 H         1.856636         3.647149         1.002031
 H         1.796386         1.866324         1.450021
 H         0.023867         2.901060        -0.558899
