19
Iteration:  4156
 O         0.114996         0.086492         0.881165
 C        -0.561402         1.248079         0.871840
 C        -2.115699         1.170468         0.356466
 C        -1.791636         1.797040         1.700936
 C        -1.154240         3.188217         1.528703
 O        -0.481142         3.725504         2.699549
 C         0.798828         3.253958         2.836675
 C         1.244431         3.031733         1.378053
 C        -0.037782         2.630553         0.541850
 H         0.426232        -0.253409         1.789240
 H        -2.415370         1.916169        -0.264206
 H        -2.444219         0.134496         0.167995
 H        -2.172505         1.396243         2.628631
 H        -1.892266         3.865663         1.115038
 H         1.487067         3.860742         3.446622
 H         0.803389         2.297839         3.324215
 H         1.754604         4.036802         0.990625
 H         2.066862         2.302092         1.235848
 H        -0.094343         3.073573        -0.496696
