19
Iteration:  4187
 O         0.091914         0.021426         0.920424
 C        -0.555355         1.251155         0.776576
 C        -2.038671         1.194603         0.415902
 C        -1.700374         1.838670         1.696718
 C        -1.149790         3.213395         1.547880
 O        -0.557887         3.772648         2.767035
 C         0.769654         3.195135         2.785623
 C         1.262098         2.993768         1.317082
 C        -0.037307         2.638143         0.539016
 H         0.662904         0.074685         1.654025
 H        -2.590946         1.841991        -0.334624
 H        -2.403840         0.198123         0.189016
 H        -2.193065         1.344166         2.633594
 H        -1.834544         3.893647         1.079404
 H         1.398548         3.840376         3.333297
 H         0.540155         2.232758         3.317761
 H         1.632760         4.039869         1.107382
 H         2.051353         2.252516         1.220672
 H        -0.158295         3.139130        -0.340300
