19
Iteration:  1247charge 0 multiplicity 1
 O         0.226496         0.165531         1.025208
 C        -0.629120         1.277649         0.880465
 C        -2.085951         1.216966         0.386448
 C        -1.695185         1.833421         1.824677
 C        -1.182952         3.215756         1.537004
 O        -0.547062         3.890541         2.585142
 C         0.776139         3.107765         2.752613
 C         1.247544         2.851473         1.344564
 C        -0.058730         2.571488         0.566144
 H         0.423979        -0.273910         0.183736
 H        -2.526760         1.950991        -0.313073
 H        -2.585292         0.101666         0.253305
 H        -2.099057         1.358129         2.768224
 H        -1.969901         3.914370         1.169218
 H         1.340456         3.712924         3.522187
 H         0.532946         2.224072         3.386243
 H         1.680046         3.757418         1.029076
 H         2.066737         2.101185         1.084621
 H         0.060941         2.834815        -0.538840
