19
Iteration:  2966charge 0 multiplicity 1
 O         0.203130         0.114136         0.930371
 C        -0.593277         1.203218         0.819496
 C        -2.070884         1.241936         0.462477
 C        -1.752665         1.916905         1.735552
 C        -1.112154         3.194378         1.480557
 O        -0.558342         3.735330         2.657033
 C         0.724935         3.142682         2.779458
 C         1.224036         2.867344         1.351721
 C        -0.069335         2.675420         0.585120
 H         1.087905         0.456325         1.104277
 H        -2.286588         1.690667        -0.465328
 H        -2.558597         0.259474         0.742356
 H        -2.135981         1.738295         2.775262
 H        -1.774508         3.947383         1.159711
 H         1.274146         3.936244         3.291259
 H         0.607942         2.240781         3.388047
 H         1.704418         3.745422         0.971066
 H         1.916389         1.991160         1.316409
 H        -0.109801         2.961115        -0.450241
