19
Iteration:  1282charge 0 multiplicity 1
 O         0.214898         0.146563         1.090170
 C        -0.640501         1.203256         0.773056
 C        -2.052334         1.088589         0.488510
 C        -1.695573         1.925250         1.687428
 C        -1.185204         3.339422         1.503608
 O        -0.549239         3.810311         2.659862
 C         0.726212         2.999532         2.772536
 C         1.318641         2.956103         1.312101
 C        -0.041458         2.720079         0.522711
 H        -0.195250        -0.576649         0.551881
 H        -2.686771         1.555140        -0.387535
 H        -2.413089         0.031671         0.732027
 H        -2.061215         1.576576         2.798560
 H        -1.933504         4.003360         1.145529
 H         1.454472         3.611945         3.533036
 H         0.580362         1.952545         3.053137
 H         1.668116         3.993790         1.007799
 H         1.981376         2.128640         1.123432
 H         0.056681         3.099921        -0.466290
