19
Iteration:  1891charge 0 multiplicity 1
 O         0.172382         0.192530         1.052183
 C        -0.697912         1.186064         0.822532
 C        -2.133249         1.107785         0.317481
 C        -1.764926         1.854217         1.687766
 C        -1.102629         3.259860         1.528048
 O        -0.564394         3.693515         2.734676
 C         0.841186         3.330681         2.861568
 C         1.324569         2.895954         1.279552
 C        -0.033676         2.619944         0.581171
 H         0.187089        -0.406003         0.221355
 H        -2.595213         1.810436        -0.494131
 H        -2.591085         0.096470         0.521125
 H        -2.200405         1.481047         2.582988
 H        -1.759399         4.060872         1.139082
 H         1.425198         4.158310         3.162287
 H         1.039970         2.452825         3.494241
 H         1.844922         3.704164         0.744601
 H         2.040028         1.943594         1.376129
 H        -0.067171         2.934122        -0.457172
