19
Iteration:  2551charge 0 multiplicity 1
 O         0.076020         0.081455         1.080869
 C        -0.650057         1.216919         0.790346
 C        -1.999949         1.209909         0.397987
 C        -1.712276         1.719422         1.806673
 C        -1.162997         3.159057         1.537146
 O        -0.499568         3.885707         2.645191
 C         0.805836         3.174518         2.722893
 C         1.230859         2.973671         1.351401
 C        -0.069734         2.713446         0.506471
 H         0.836031        -0.053667         0.534611
 H        -2.492534         1.830241        -0.331924
 H        -2.516129         0.149793         0.499283
 H        -2.072832         1.230281         2.702512
 H        -1.901426         3.856097         1.188490
 H         1.654960         3.758211         3.304412
 H         0.764372         2.150591         3.287443
 H         1.838382         3.819193         0.952701
 H         1.729791         2.032032         1.194859
 H        -0.115232         3.218871        -0.491459
