19
Iteration:  3426
 O         0.063344         0.020454         0.860304
 C        -0.588807         1.209270         0.847317
 C        -2.030434         1.264135         0.285239
 C        -1.670089         1.762085         1.743392
 C        -1.244257         3.203920         1.607837
 O        -0.484475         3.847691         2.663138
 C         0.789826         3.256282         2.793181
 C         1.255031         2.980577         1.392213
 C        -0.012305         2.574958         0.629412
 H         0.393759        -0.151241         1.795388
 H        -2.406710         1.907004        -0.492454
 H        -2.660454         0.337258         0.337032
 H        -2.072878         1.132714         2.577793
 H        -2.067891         3.786700         1.164097
 H         1.354745         4.021864         3.249336
 H         0.834093         2.239846         3.274419
 H         1.542075         3.932937         1.009436
 H         2.189270         2.382963         1.327077
 H        -0.101582         2.968988        -0.397461
