19
Iteration:  1873charge 0 multiplicity 1
 O         0.232356         0.174470         1.041296
 C        -0.654957         1.306872         0.792179
 C        -2.100798         1.200664         0.424760
 C        -1.815347         1.857786         1.704046
 C        -1.171399         3.204430         1.466207
 O        -0.515843         3.633551         2.691311
 C         0.853547         3.270776         2.763995
 C         1.199858         2.904199         1.395686
 C        -0.035170         2.594920         0.591124
 H         0.082550        -0.567588         0.353948
 H        -2.420449         1.681714        -0.503436
 H        -2.542498         0.295435         0.517915
 H        -2.213153         1.610126         2.745315
 H        -1.688213         4.044932         0.919586
 H         1.545309         4.196374         2.991361
 H         0.915960         2.360602         3.414703
 H         1.649741         3.852501         1.087020
 H         1.931725         2.173958         1.409472
 H         0.218616         2.811712        -0.497718
