19
Iteration:   982
 O        -0.073045        -0.013272         1.032496
 C        -0.693107         1.177255         0.779763
 C        -2.020168         1.171265         0.327923
 C        -1.752705         1.704388         1.699851
 C        -1.081745         3.192129         1.564035
 O        -0.493895         3.734709         2.745885
 C         0.907877         3.515875         2.775307
 C         1.277594         2.995459         1.334756
 C         0.010400         2.627108         0.603269
 H         0.560379        -0.153512         0.367896
 H        -2.440082         1.888122        -0.528472
 H        -2.520573         0.241227         0.469948
 H        -2.307536         1.564690         2.676087
 H        -1.925643         3.783833         1.097560
 H         1.433687         4.437762         3.063281
 H         1.072378         2.702624         3.531734
 H         1.628847         3.937081         0.814274
 H         1.958808         2.075034         1.268733
 H         0.080987         2.834994        -0.416819
