19
Iteration:  3595charge 0 multiplicity 1
 O         0.123702         0.030102         0.916883
 C        -0.601283         1.198823         0.851912
 C        -2.072041         1.231815         0.283131
 C        -1.790713         1.849772         1.725346
 C        -1.235969         3.160837         1.572162
 O        -0.507184         3.771934         2.771824
 C         0.814783         3.308481         2.798498
 C         1.293786         2.941551         1.344658
 C        -0.055396         2.587265         0.543428
 H         0.958895         0.339412         1.409704
 H        -2.307625         1.863237        -0.545498
 H        -2.581261         0.245922         0.328184
 H        -2.296015         1.321250         2.581235
 H        -1.745776         4.103383         1.267823
 H         1.383793         4.131530         3.331816
 H         0.956956         2.368614         3.393555
 H         1.717682         3.826696         0.825006
 H         1.983316         2.154204         1.211192
 H         0.074192         2.928639        -0.443249
