19
Iteration:  4442
 O         0.157728         0.042692         0.934592
 C        -0.626716         1.226800         0.769257
 C        -2.047682         1.174077         0.407766
 C        -1.699405         1.855977         1.702043
 C        -1.117586         3.299055         1.579199
 O        -0.569658         3.775564         2.707152
 C         0.753713         3.074860         2.765693
 C         1.208901         3.018163         1.394207
 C        -0.031028         2.623022         0.545227
 H         0.916761         0.393442         1.515595
 H        -2.601914         1.723683        -0.553940
 H        -2.312877         0.147341         0.454459
 H        -2.195266         1.426504         2.653620
 H        -1.715502         4.097459         1.013639
 H         1.322890         3.867459         3.434854
 H         0.586673         2.138904         3.179264
 H         1.618906         4.082655         1.117561
 H         1.945255         2.285372         1.269109
 H        -0.006270         2.941117        -0.506304
