19
Iteration:  1428charge 0 multiplicity 1
 O         0.187654         0.069172         0.875647
 C        -0.619593         1.190699         0.880996
 C        -2.019142         1.212133         0.451336
 C        -1.610457         1.813077         1.890900
 C        -1.159253         3.238214         1.475830
 O        -0.532778         3.933941         2.590730
 C         0.698555         3.208176         2.808627
 C         1.233671         2.901743         1.350584
 C        -0.049907         2.605312         0.567450
 H        -0.287183        -0.683886         0.515732
 H        -2.485872         1.887694        -0.249904
 H        -2.551162         0.181657         0.279133
 H        -2.085597         1.376489         2.754297
 H        -2.012934         3.895441         1.173349
 H         1.328850         3.780462         3.590542
 H         0.464052         2.301110         3.281182
 H         1.703328         3.773653         0.834812
 H         1.858608         1.982385         1.491976
 H         0.164833         2.897229        -0.435582
