19
Iteration:  3008charge 0 multiplicity 1
 O         0.032628        -0.000517         0.968461
 C        -0.619502         1.228319         0.779649
 C        -2.015745         1.132936         0.315153
 C        -1.757024         1.792094         1.697108
 C        -1.137534         3.159220         1.623584
 O        -0.482678         3.817801         2.654833
 C         0.803074         3.178167         2.780518
 C         1.275515         3.140152         1.305679
 C        -0.000070         2.658072         0.654349
 H         0.338514        -0.057918         1.930683
 H        -2.389075         1.900533        -0.512514
 H        -2.620890         0.242379         0.562801
 H        -2.350335         1.347086         2.535255
 H        -1.754375         3.812583         1.081902
 H         1.466819         3.799219         3.422186
 H         0.731254         2.089303         3.084067
 H         1.553135         4.158522         0.989686
 H         2.064592         2.407961         1.157282
 H        -0.168976         3.217043        -0.293021
