19
Iteration:   973charge 0 multiplicity 1
 O        -0.009861        -0.102168         0.998186
 C        -0.649559         1.142222         0.765688
 C        -2.121637         1.203237         0.349080
 C        -1.773631         1.822045         1.736302
 C        -1.127237         3.159954         1.539853
 O        -0.518889         3.770092         2.724251
 C         0.894348         3.461390         2.735794
 C         1.305629         3.029498         1.381334
 C        -0.004017         2.608848         0.656176
 H         0.677912        -0.220186         0.380986
 H        -2.356290         1.839731        -0.597753
 H        -2.513392         0.261754         0.245056
 H        -2.240308         1.438046         2.748194
 H        -1.793597         3.988955         1.243516
 H         1.349855         4.472013         2.898772
 H         1.338644         2.742294         3.534338
 H         1.729532         3.837506         0.755526
 H         2.165915         2.209081         1.415005
 H         0.057363         3.071166        -0.336610
