19
Iteration:  2350
 O         0.134386        -0.027645         0.832917
 C        -0.622762         1.141292         0.841919
 C        -2.042575         1.294708         0.436095
 C        -1.656668         1.782945         1.839496
 C        -1.149602         3.234152         1.528396
 O        -0.598429         3.893644         2.561785
 C         0.772133         3.309683         2.848274
 C         1.252049         2.885288         1.393638
 C        -0.053579         2.571060         0.639449
 H         0.883747         0.362343         0.274935
 H        -2.428230         1.863857        -0.417713
 H        -2.527327         0.364796         0.478139
 H        -2.005020         1.370406         2.859553
 H        -2.091995         3.704337         1.133413
 H         1.389758         4.152530         3.398542
 H         0.736440         2.526801         3.520681
 H         1.829325         3.633539         0.848428
 H         1.882094         1.952887         1.456742
 H         0.016434         3.044080        -0.389462
