19
Iteration:  2401
 O         0.117755         0.055611         0.835307
 C        -0.577959         1.212872         0.785759
 C        -2.123624         1.104451         0.541257
 C        -1.641586         1.800932         1.787618
 C        -1.118827         3.287600         1.451803
 O        -0.490646         3.864945         2.605538
 C         0.690634         3.143092         2.844461
 C         1.254973         2.989041         1.413713
 C        -0.026508         2.685818         0.507390
 H         0.567135         0.015844         1.682071
 H        -2.576774         1.656090        -0.253414
 H        -2.648005         0.096115         0.706805
 H        -2.057474         1.596685         2.769137
 H        -1.971154         3.870853         1.101112
 H         1.306679         3.738788         3.406574
 H         0.444618         2.064948         3.349529
 H         1.608020         3.950342         1.079376
 H         2.002271         2.162901         1.466814
 H         0.062219         2.901264        -0.550388
