19
Iteration:  3364
 O         0.110851         0.099034         0.932752
 C        -0.642212         1.302946         0.779943
 C        -2.068749         1.120543         0.424197
 C        -1.803549         1.876987         1.707231
 C        -1.181429         3.148741         1.394072
 O        -0.486867         3.723334         2.721048
 C         0.791658         3.142734         2.868224
 C         1.286964         2.979376         1.395586
 C        -0.048678         2.674145         0.548962
 H         1.002258         0.296109         1.355034
 H        -2.513924         1.753829        -0.354174
 H        -2.359973         0.074026         0.539915
 H        -2.186048         1.653548         2.657809
 H        -1.551620         4.096417         0.963594
 H         1.518599         3.875964         3.420153
 H         0.760470         2.259025         3.470091
 H         1.546484         3.980295         0.935187
 H         2.093204         2.283953         1.383971
 H        -0.055463         3.081060        -0.446790
