19
Iteration:  4327
 O         0.128235        -0.006243         0.764248
 C        -0.630162         1.213098         0.835108
 C        -1.996103         1.220920         0.392927
 C        -1.775246         1.783828         1.762148
 C        -1.234326         3.198056         1.536969
 O        -0.502531         3.829674         2.644539
 C         0.739890         3.282115         2.829890
 C         1.283414         2.989174         1.440849
 C        -0.018466         2.595136         0.667729
 H         0.946402         0.048893         1.328685
 H        -2.247870         1.979784        -0.352460
 H        -2.514604         0.237622         0.271681
 H        -2.245558         1.453874         2.717979
 H        -1.859349         4.028121         1.284696
 H         1.325107         3.927665         3.390906
 H         0.677360         2.317165         3.257985
 H         1.533462         3.867885         0.984765
 H         2.064959         2.205344         1.206904
 H         0.129732         2.831846        -0.416875
