19
Iteration:   961charge 0 multiplicity 1
 O         0.063626        -0.151613         0.957555
 C        -0.647354         1.183965         0.877776
 C        -2.138326         1.274494         0.373332
 C        -1.759582         1.788524         1.677140
 C        -1.168871         3.235342         1.581720
 O        -0.537298         3.747755         2.688012
 C         0.893636         3.513057         2.751798
 C         1.335125         2.994256         1.331171
 C        -0.007408         2.548434         0.658007
 H         0.739675        -0.149967         0.179103
 H        -2.532074         2.085268        -0.405719
 H        -2.701099         0.385776         0.488211
 H        -2.169003         1.283394         2.645769
 H        -1.723254         3.934616         0.878026
 H         1.451258         4.400791         3.150464
 H         0.850288         2.699728         3.600275
 H         1.813122         3.877463         0.814711
 H         2.124303         2.114357         1.512198
 H        -0.113178         2.827115        -0.389163
