19
Iteration:   633charge 0 multiplicity 1
 O         0.239576         0.054438         0.976945
 C        -0.629804         1.252989         0.758576
 C        -2.142926         1.226121         0.476699
 C        -1.709260         1.851881         1.804012
 C        -1.105421         3.190118         1.469908
 O        -0.558082         3.902551         2.649646
 C         0.697744         3.230269         2.803600
 C         1.293555         2.856817         1.336451
 C        -0.010358         2.616098         0.544838
 H        -0.285499        -0.838701         0.905933
 H        -2.652679         1.904268        -0.245101
 H        -2.496314         0.215430         0.517537
 H        -1.962878         1.372350         2.670633
 H        -1.839744         3.881833         1.079183
 H         1.320072         3.997371         3.366912
 H         0.661348         2.222495         3.220921
 H         1.872195         3.686523         0.894883
 H         1.942065         1.985679         1.541053
 H         0.073228         3.042452        -0.499293
