19
Iteration:  1789
 O         0.146579         0.104336         1.013793
 C        -0.574248         1.264420         0.792393
 C        -2.096657         1.203910         0.469614
 C        -1.655510         1.850668         1.731224
 C        -1.196463         3.264638         1.512115
 O        -0.572481         3.761935         2.676807
 C         0.709641         3.240979         2.767436
 C         1.255318         2.882956         1.349147
 C         0.011769         2.590555         0.560926
 H         0.504092        -0.056691         0.165595
 H        -2.705997         1.824601        -0.280651
 H        -2.385876         0.030884         0.534100
 H        -2.139716         1.547815         2.720067
 H        -1.771839         4.021443         0.990337
 H         1.345307         3.844511         3.438790
 H         0.731017         2.225679         3.199441
 H         1.857087         3.810484         0.878696
 H         2.051197         2.108290         1.443117
 H         0.132479         2.672879        -0.519077
