19
Iteration:  2938
 O         0.120984         0.183073         0.861394
 C        -0.638298         1.234238         0.803199
 C        -2.125262         1.031615         0.389013
 C        -1.714131         1.765866         1.721115
 C        -1.162020         3.249267         1.559300
 O        -0.508232         3.946452         2.613950
 C         0.782476         3.116839         2.823393
 C         1.269572         2.843812         1.426383
 C        -0.010777         2.674031         0.603976
 H         0.927354         0.358208         1.415327
 H        -2.438182         1.772952        -0.420991
 H        -2.659375         0.064422         0.649896
 H        -1.945283         1.465517         2.756458
 H        -1.987578         3.994526         1.152653
 H         1.370292         3.872684         3.331051
 H         0.507604         2.216362         3.451047
 H         1.764001         3.776060         1.083861
 H         1.957103         1.987362         1.337286
 H         0.131328         2.900487        -0.479601
