19
Iteration:  3191
 O         0.066023         0.084258         0.829619
 C        -0.634139         1.254781         0.867910
 C        -2.064722         1.201091         0.396868
 C        -1.719420         1.704658         1.712718
 C        -1.197560         3.229687         1.508656
 O        -0.528955         3.810922         2.676505
 C         0.790463         3.293139         2.816194
 C         1.300648         2.887270         1.417859
 C        -0.004881         2.623425         0.600371
 H         0.883751         0.284789         1.291833
 H        -2.392419         1.790038        -0.452855
 H        -2.446552         0.089224         0.393957
 H        -1.955986         1.229135         2.708836
 H        -1.969638         3.967499         1.080397
 H         1.291436         4.239552         3.180334
 H         0.621887         2.626600         3.673260
 H         2.008365         3.616115         0.842285
 H         1.914295         1.981086         1.642367
 H         0.053323         2.987173        -0.502856
