19
Iteration:  3009charge 0 multiplicity 1
 O         0.032491        -0.003853         0.969975
 C        -0.620050         1.221720         0.776232
 C        -2.018146         1.134586         0.307650
 C        -1.750917         1.784665         1.703311
 C        -1.141873         3.171521         1.613183
 O        -0.484867         3.816711         2.657214
 C         0.815784         3.179825         2.782324
 C         1.272910         3.140151         1.306348
 C         0.003225         2.667990         0.653333
 H         0.299654        -0.042712         1.931690
 H        -2.353245         1.886628        -0.458126
 H        -2.654174         0.237975         0.575968
 H        -2.385731         1.310419         2.522390
 H        -1.737429         3.806252         1.092245
 H         1.452248         3.805601         3.424261
 H         0.727253         2.105050         3.092623
 H         1.531143         4.135557         1.009010
 H         2.077854         2.406367         1.148341
 H        -0.195608         3.198824        -0.279144
