19
Iteration:  4609charge 0 multiplicity 1
 O         0.180006         0.052319         0.811440
 C        -0.623438         1.221906         0.821430
 C        -2.019548         1.204792         0.378029
 C        -1.709222         1.749504         1.798258
 C        -1.194157         3.301330         1.556719
 O        -0.567718         3.925260         2.612609
 C         0.760703         3.135865         2.816183
 C         1.266398         2.871234         1.423145
 C        -0.052791         2.630816         0.651847
 H         0.939139         0.245346         1.444553
 H        -2.449985         1.769554        -0.445578
 H        -2.673240         0.185818         0.460358
 H        -2.285208         1.158772         2.531248
 H        -1.771173         4.011470         0.918982
 H         1.278795         3.814842         3.508828
 H         0.574575         2.114850         3.213342
 H         1.649976         3.813765         1.059503
 H         1.973493         2.170167         1.288560
 H         0.083847         3.155321        -0.309345
