19
Iteration:  3926charge 0 multiplicity 1
 O         0.074474         0.023123         0.918663
 C        -0.594293         1.223701         0.756812
 C        -2.036956         1.224979         0.343906
 C        -1.660188         1.803951         1.697708
 C        -1.212070         3.183524         1.606655
 O        -0.484990         3.805163         2.707098
 C         0.752642         3.202754         2.789524
 C         1.245225         3.052809         1.309927
 C        -0.035351         2.597309         0.626045
 H         0.612549         0.012727         1.762053
 H        -2.294577         1.909525        -0.405121
 H        -2.543255         0.330274         0.409932
 H        -2.158809         1.402169         2.679993
 H        -2.031922         3.834549         1.266316
 H         1.469580         3.834061         3.357018
 H         0.729182         2.225241         3.326756
 H         1.740917         3.971167         0.905247
 H         1.940505         2.261192         1.359375
 H        -0.152122         2.960387        -0.439002
