19
Iteration:  1742
 O         0.197714         0.108114         1.016039
 C        -0.657478         1.201044         0.749406
 C        -2.098428         1.231217         0.338838
 C        -1.732537         1.728410         1.741950
 C        -1.185441         3.213238         1.615894
 O        -0.540015         3.943156         2.655999
 C         0.807253         3.337215         2.817654
 C         1.260001         2.815223         1.376268
 C        -0.037659         2.548077         0.584522
 H         0.275570        -0.366662         0.130666
 H        -2.498818         1.780640        -0.534612
 H        -2.607971         0.324536         0.401161
 H        -1.967744         1.107111         2.574350
 H        -2.113123         3.785240         1.332736
 H         1.428153         4.215167         3.226089
 H         0.908522         2.438032         3.436831
 H         2.056038         3.590115         0.875180
 H         1.889735         1.951211         1.408102
 H         0.089778         2.933609        -0.482062
