19
Iteration:  3168charge 0 multiplicity 1
 O         0.126363        -0.001611         0.750271
 C        -0.609297         1.220654         0.742841
 C        -2.031678         1.150854         0.464732
 C        -1.681758         1.865935         1.802388
 C        -1.123826         3.195442         1.510923
 O        -0.553958         3.871587         2.623463
 C         0.749834         3.211550         2.842586
 C         1.230006         2.936144         1.439215
 C        -0.014481         2.651617         0.620719
 H         0.475849        -0.016967         1.693227
 H        -2.668979         1.732347        -0.239584
 H        -2.325470         0.098013         0.571776
 H        -2.192209         1.718607         2.812391
 H        -1.871309         3.866554         1.023344
 H         1.236512         3.975000         3.531371
 H         0.401544         2.346925         3.426791
 H         1.763776         3.810035         0.877466
 H         1.930198         2.085472         1.437869
 H         0.120772         3.140757        -0.400925
