19
Iteration:  1741charge 0 multiplicity 1
 O         0.197935         0.110710         1.016755
 C        -0.659727         1.194454         0.751005
 C        -2.090748         1.236564         0.339795
 C        -1.730441         1.732946         1.751810
 C        -1.182194         3.201211         1.620861
 O        -0.548517         3.948237         2.657054
 C         0.809529         3.335752         2.812838
 C         1.261151         2.816413         1.374496
 C        -0.034488         2.552394         0.578134
 H         0.228933        -0.367254         0.107143
 H        -2.479867         1.755842        -0.521945
 H        -2.671028         0.358490         0.356162
 H        -1.955576         1.081990         2.560573
 H        -2.110322         3.798371         1.305154
 H         1.409929         4.220490         3.197438
 H         0.908825         2.410027         3.457101
 H         2.038802         3.584123         0.931702
 H         1.930582         1.950892         1.403554
 H         0.084333         2.900050        -0.509061
