19
Iteration:  2144charge 0 multiplicity 1
 O         0.141257         0.081668         1.026514
 C        -0.640457         1.203955         0.884070
 C        -2.034952         1.165142         0.290033
 C        -1.691013         1.838576         1.785677
 C        -1.179559         3.293610         1.579215
 O        -0.492242         3.850844         2.683043
 C         0.830154         3.184134         2.744641
 C         1.209542         2.921955         1.303752
 C        -0.145373         2.624827         0.592861
 H         0.904037         0.197264         0.478562
 H        -2.317355         1.682038        -0.601364
 H        -2.386475         0.029350         0.417002
 H        -2.220926         1.322681         2.508452
 H        -1.900858         3.863748         1.047303
 H         1.445331         3.740727         3.397742
 H         0.708918         2.115059         3.433796
 H         1.621119         3.773111         0.669457
 H         1.965590         2.100312         1.394503
 H        -0.133544         2.939749        -0.444901
