19
Iteration:  2235charge 0 multiplicity 1
 O         0.194383         0.116474         0.972680
 C        -0.646167         1.232307         0.900181
 C        -2.009819         1.133367         0.364604
 C        -1.790740         1.757892         1.707524
 C        -1.183651         3.227875         1.533185
 O        -0.469633         3.912315         2.662125
 C         0.780647         3.189622         2.804781
 C         1.246050         2.986372         1.316999
 C        -0.046537         2.573184         0.595385
 H        -0.251226        -0.664220         0.508867
 H        -2.188185         1.879121        -0.458529
 H        -2.684132         0.365771         0.457874
 H        -2.213696         1.194146         2.608475
 H        -1.889083         4.048725         1.281645
 H         1.480692         3.618137         3.490909
 H         0.698161         2.151332         3.375701
 H         1.567125         3.985666         0.818651
 H         2.128406         2.376400         1.368015
 H        -0.181597         2.848627        -0.469859
