19
Iteration:  2737
 O         0.152404         0.090145         1.043479
 C        -0.665250         1.305624         0.864696
 C        -2.105916         1.220913         0.362062
 C        -1.731276         1.813721         1.715234
 C        -1.217692         3.197850         1.516572
 O        -0.512605         3.720668         2.693594
 C         0.750367         3.078907         2.754902
 C         1.280633         2.998510         1.276269
 C         0.044464         2.627809         0.575835
 H         0.831242         0.573641         1.482117
 H        -2.231484         1.898959        -0.439819
 H        -2.611621         0.369971         0.354117
 H        -2.106251         1.624284         2.722916
 H        -1.907112         4.061011         1.169663
 H         1.380180         3.826288         3.346321
 H         0.655398         2.124863         3.208193
 H         1.408599         3.929534         0.759400
 H         2.112477         2.314707         1.101268
 H         0.217384         2.839875        -0.473865
