19
Iteration:  4591
 O         0.120107         0.097101         0.789195
 C        -0.633827         1.206552         0.867681
 C        -2.044826         1.159295         0.395891
 C        -1.775220         1.818252         1.733730
 C        -1.146086         3.149658         1.515421
 O        -0.485345         3.871757         2.645317
 C         0.680657         3.203845         2.854070
 C         1.261042         2.996828         1.425624
 C        -0.000839         2.611877         0.620070
 H         1.046107         0.217570         1.143390
 H        -2.427244         1.688244        -0.436844
 H        -2.357511         0.175404         0.346343
 H        -2.180612         1.551378         2.765285
 H        -1.831964         3.910345         1.185256
 H         1.358888         3.679481         3.460634
 H         0.488642         2.251940         3.422557
 H         1.735260         3.881590         1.014951
 H         2.098087         2.123479         1.478742
 H         0.071057         2.731179        -0.481250
