19
Iteration:   844
 O         0.247796         0.170915         0.983147
 C        -0.613638         1.213467         0.825410
 C        -2.124704         1.163758         0.467425
 C        -1.731540         1.896704         1.763118
 C        -1.198378         3.273199         1.488180
 O        -0.489379         3.901363         2.621365
 C         0.731763         3.073502         2.783655
 C         1.237110         2.886331         1.312693
 C         0.013809         2.594885         0.605303
 H        -0.199565        -0.703152         0.789914
 H        -2.561427         1.531343        -0.463274
 H        -2.474625         0.238043         0.685752
 H        -2.153203         1.630238         2.875330
 H        -1.791039         4.091708         1.062041
 H         1.447939         3.631969         3.436555
 H         0.491337         2.101399         3.113621
 H         1.692200         3.761355         0.951497
 H         1.851618         1.972642         1.238051
 H         0.050194         2.843231        -0.502444
