19
Iteration:  4066
 O         0.157303         0.035356         0.772348
 C        -0.547142         1.256959         0.830715
 C        -2.097690         1.166816         0.484277
 C        -1.702007         1.854123         1.768350
 C        -1.179195         3.237057         1.451628
 O        -0.605744         3.833428         2.664421
 C         0.741072         3.134758         2.831626
 C         1.257880         2.895968         1.393212
 C         0.014101         2.696810         0.610653
 H         0.847226        -0.031865         1.528655
 H        -2.475131         1.859163        -0.285468
 H        -2.519177         0.189042         0.586311
 H        -2.042094         1.590114         2.906136
 H        -1.798633         4.048835         1.152005
 H         1.365155         3.654896         3.446816
 H         0.481200         2.193958         3.331139
 H         1.618112         3.916246         0.951643
 H         2.092010         2.182370         1.201647
 H         0.011605         3.050216        -0.454856
