19
Iteration:  3315
 O         0.187735         0.121301         0.926355
 C        -0.640049         1.280665         0.858182
 C        -2.008512         1.189812         0.418537
 C        -1.756508         1.805877         1.783073
 C        -1.256195         3.233136         1.521445
 O        -0.469258         3.820340         2.580546
 C         0.758656         3.039266         2.775542
 C         1.213808         2.947451         1.400046
 C        -0.039457         2.704753         0.549723
 H         0.778423         0.209868         1.663505
 H        -2.180160         1.973823        -0.346003
 H        -2.427434         0.246995         0.264685
 H        -2.083071         1.227219         2.657944
 H        -2.026629         4.052097         1.304866
 H         1.327260         3.614798         3.454816
 H         0.527853         2.014231         3.263466
 H         1.711038         3.802035         1.063905
 H         1.786261         2.001423         1.234357
 H         0.082420         2.848880        -0.549133
