19
Iteration:  3835
 O         0.105353         0.112968         0.906013
 C        -0.582044         1.274829         0.844303
 C        -2.045815         1.180124         0.391667
 C        -1.719857         1.822427         1.765479
 C        -1.157232         3.214845         1.590607
 O        -0.570763         3.767242         2.694474
 C         0.746409         3.146892         2.798699
 C         1.235730         2.894256         1.302508
 C         0.009133         2.661985         0.533072
 H         1.038796         0.376837         1.248106
 H        -2.311009         1.778386        -0.417959
 H        -2.391302         0.124220         0.347120
 H        -2.293410         1.786099         2.658733
 H        -1.837110         3.986145         1.254046
 H         1.417326         3.792680         3.328449
 H         0.680328         2.225911         3.459145
 H         1.665567         3.795949         0.829220
 H         2.036770         2.092642         1.340239
 H        -0.148028         3.074389        -0.564406
