19
Iteration:  4101charge 0 multiplicity 1
 O         0.118592         0.065251         0.896556
 C        -0.648601         1.264013         0.770043
 C        -2.072425         1.161967         0.349302
 C        -1.707103         1.798913         1.738270
 C        -1.214853         3.212001         1.534755
 O        -0.512214         3.822430         2.671064
 C         0.797978         3.189329         2.856454
 C         1.241600         2.908234         1.399015
 C        -0.015263         2.657915         0.622104
 H         1.039060         0.177713         1.287063
 H        -2.467076         1.785348        -0.405642
 H        -2.468133         0.208119         0.411484
 H        -2.078062         1.282713         2.705757
 H        -1.915955         3.908563         0.997747
 H         1.498020         3.860395         3.382262
 H         0.752497         2.253413         3.425201
 H         1.517160         3.978752         0.943069
 H         2.061644         2.231238         1.128103
 H         0.030329         3.263984        -0.390286
