19
Iteration:  1013charge 0 multiplicity 1
 O         0.126262         0.052000         1.140076
 C        -0.651436         1.212295         0.803919
 C        -2.054426         1.251253         0.360613
 C        -1.763761         1.786290         1.718161
 C        -1.173419         3.182716         1.537047
 O        -0.542591         3.674631         2.706968
 C         0.870690         3.346905         2.684903
 C         1.274630         2.931355         1.279973
 C        -0.038590         2.697543         0.616766
 H         0.129021        -0.690691         0.428602
 H        -2.251219         2.078004        -0.469479
 H        -2.665249         0.337466         0.312670
 H        -2.309041         1.552293         2.678392
 H        -1.876167         4.053807         1.142722
 H         1.479334         4.095684         3.171231
 H         0.795456         2.604326         3.452247
 H         1.977318         3.745610         0.904398
 H         2.005576         2.187633         1.082216
 H         0.063543         2.968847        -0.453449
