19
Iteration:  4605
 O         0.167724         0.061587         0.802884
 C        -0.607234         1.258115         0.842354
 C        -2.039135         1.170884         0.380948
 C        -1.731766         1.735308         1.773784
 C        -1.164416         3.300210         1.567108
 O        -0.557660         3.920511         2.608851
 C         0.752234         3.130343         2.822212
 C         1.237275         2.908078         1.416416
 C        -0.022470         2.584681         0.667081
 H         0.904364         0.303723         1.340669
 H        -2.438006         1.828403        -0.484314
 H        -2.596208         0.266046         0.526917
 H        -2.294355         1.243681         2.523812
 H        -1.782491         3.967426         0.927821
 H         1.292580         3.904969         3.531501
 H         0.532825         2.109383         3.133929
 H         1.689092         3.873475         0.992702
 H         2.051160         2.056711         1.337138
 H         0.037759         3.145968        -0.253716
