19
Iteration:  2996charge 0 multiplicity 1
 O         0.057812         0.026722         0.943470
 C        -0.605662         1.224896         0.872005
 C        -2.026916         1.220807         0.368149
 C        -1.792399         1.803234         1.706379
 C        -1.157185         3.186178         1.539018
 O        -0.481260         3.799301         2.697377
 C         0.767050         3.170158         2.740018
 C         1.278984         3.076196         1.333304
 C        -0.038531         2.638973         0.598296
 H         0.701343         0.043455         1.670641
 H        -2.495164         1.588543        -0.705561
 H        -2.183571         0.157728         0.321236
 H        -2.037700         1.467106         2.699274
 H        -1.844121         4.005740         1.354063
 H         1.367581         3.711115         3.530378
 H         0.618519         2.149338         3.246418
 H         1.608959         4.049630         0.847796
 H         2.143170         2.439692         1.231749
 H         0.039499         2.790519        -0.529776
