19
Iteration:  4763
 O         0.193068         0.073565         0.841824
 C        -0.597319         1.261514         0.785443
 C        -2.083595         1.084295         0.399179
 C        -1.724878         1.899170         1.703982
 C        -1.153544         3.289129         1.474635
 O        -0.571204         3.780946         2.697030
 C         0.773610         3.133532         2.832203
 C         1.262597         2.927537         1.405731
 C        -0.033742         2.682943         0.632538
 H         0.472523         0.004821         1.811440
 H        -2.412572         1.747385        -0.465349
 H        -2.528806         0.159145         0.583752
 H        -2.264012         1.689701         2.715922
 H        -1.872397         4.030619         1.075729
 H         1.353930         3.709908         3.476971
 H         0.519696         2.148589         3.258232
 H         1.704895         3.796970         1.007237
 H         1.964200         2.170143         1.259641
 H         0.049833         2.997690        -0.350435
