19
Iteration:  2018charge 0 multiplicity 1
 O         0.289010         0.191329         0.988679
 C        -0.596595         1.238420         0.813868
 C        -2.231234         1.176116         0.430359
 C        -1.626626         1.783041         1.761029
 C        -1.128300         3.205417         1.568803
 O        -0.505106         3.895935         2.568481
 C         0.724634         3.162814         2.786274
 C         1.223992         2.817326         1.436212
 C        -0.073976         2.655353         0.532725
 H        -0.088911        -0.550921         0.545499
 H        -2.425916         1.751806        -0.441320
 H        -2.937430         0.337682         0.415497
 H        -2.054860         1.501385         2.666929
 H        -1.861749         3.867652         1.065422
 H         1.539970         3.838826         3.340307
 H         0.615946         2.154113         3.440659
 H         1.837984         3.652427         1.083964
 H         1.772378         1.939871         1.302853
 H        -0.180138         3.123052        -0.475968
