19
Iteration:  2053charge 0 multiplicity 1
 O         0.216337         0.102636         0.909234
 C        -0.632711         1.221610         0.898371
 C        -2.056566         1.166373         0.447602
 C        -1.737070         1.820676         1.777101
 C        -1.178744         3.180146         1.544800
 O        -0.524108         3.881841         2.619327
 C         0.737782         3.196726         2.769564
 C         1.262548         2.914269         1.330329
 C        -0.026956         2.647405         0.610431
 H        -0.325709        -0.527530         0.441060
 H        -2.264531         1.891245        -0.378646
 H        -2.462048         0.234800         0.478058
 H        -2.306230         1.571911         2.718730
 H        -1.675738         3.926031         0.985098
 H         1.356997         3.929436         3.351775
 H         0.748762         2.124501         3.332097
 H         1.787612         3.744698         0.961398
 H         1.929922         2.011261         1.334748
 H        -0.026812         3.045616        -0.409517
