19
Iteration:  2761
 O         0.108849         0.084194         1.010221
 C        -0.620401         1.276748         0.863321
 C        -1.972300         1.124155         0.403998
 C        -1.683282         1.869170         1.708117
 C        -1.152602         3.219485         1.483326
 O        -0.479651         3.769811         2.648088
 C         0.776531         3.021228         2.751458
 C         1.227463         3.047725         1.352160
 C        -0.145389         2.749840         0.540668
 H         0.302900         0.083654         1.972025
 H        -2.171723         1.665085        -0.489433
 H        -2.414603         0.225676         0.561620
 H        -2.128209         1.499195         2.611294
 H        -1.802393         4.006118         1.154952
 H         1.450434         3.435698         3.424868
 H         0.485045         1.983536         2.974797
 H         1.664513         3.924724         1.046812
 H         1.915214         2.221507         1.259320
 H        -0.274108         3.057585        -0.482286
