19
Iteration:  1455charge 0 multiplicity 1
 O         0.265344         0.143762         0.892539
 C        -0.601889         1.232284         0.775115
 C        -2.116862         1.119618         0.470311
 C        -1.719179         1.775169         1.751373
 C        -1.203097         3.219730         1.536291
 O        -0.413485         4.001037         2.553509
 C         0.727606         3.177451         2.842709
 C         1.213069         2.849826         1.407367
 C        -0.076902         2.656129         0.603338
 H        -0.287135        -0.658439         1.029700
 H        -2.791188         1.557568        -0.289402
 H        -2.424088         0.147060         0.561224
 H        -2.111864         1.259630         2.642281
 H        -2.000869         3.919452         1.192488
 H         1.426065         3.727906         3.413883
 H         0.354783         2.210675         3.488538
 H         1.797664         3.688306         0.990094
 H         1.826371         1.902369         1.422472
 H         0.172856         3.046737        -0.425687
