19
Iteration:  2705
 O         0.123269        -0.024073         0.949684
 C        -0.624916         1.262876         0.822691
 C        -2.042342         1.148276         0.373961
 C        -1.872843         1.876981         1.672276
 C        -1.187141         3.209462         1.563958
 O        -0.498254         3.767190         2.704954
 C         0.816713         3.279524         2.815358
 C         1.248905         2.912482         1.313338
 C        -0.017876         2.699215         0.626674
 H         1.113448         0.226442         0.968303
 H        -2.405203         1.652181        -0.500898
 H        -2.278602         0.176376         0.396734
 H        -2.438796         1.543415         2.563661
 H        -1.811025         4.070869         1.238511
 H         1.591311         3.962606         3.216514
 H         1.001883         2.448036         3.582723
 H         1.640680         3.763425         0.846156
 H         1.979988         2.131559         1.196550
 H         0.004869         2.929186        -0.431380
