19
Iteration:  1110charge 0 multiplicity 1
 O         0.303630         0.157591         0.938430
 C        -0.692866         1.258035         0.821632
 C        -2.130398         1.193110         0.434815
 C        -1.691046         1.848590         1.786531
 C        -1.176051         3.237196         1.514034
 O        -0.490175         3.808637         2.583808
 C         0.700118         3.172832         2.789813
 C         1.226849         2.860744         1.400314
 C        -0.006182         2.632807         0.574989
 H        -0.142928        -0.730047         1.166231
 H        -2.564071         1.851818        -0.364687
 H        -2.569699         0.241442         0.627767
 H        -2.057787         1.391805         2.778786
 H        -1.954544         3.923735         1.076271
 H         1.402418         3.835492         3.373480
 H         0.684464         2.105604         3.250712
 H         1.766814         3.726706         0.862759
 H         1.929647         2.072062         1.319367
 H        -0.013592         3.154428        -0.507397
