19
Iteration:  2826charge 0 multiplicity 1
 O         0.142187         0.047370         0.891604
 C        -0.568837         1.269334         0.831877
 C        -2.058559         1.260685         0.381803
 C        -1.782972         1.767699         1.760350
 C        -1.211862         3.206425         1.525461
 O        -0.555168         3.790657         2.706724
 C         0.813215         3.268822         2.773460
 C         1.292499         2.879551         1.374333
 C        -0.057593         2.608824         0.544003
 H         0.746896         0.167928         1.618380
 H        -2.334670         1.841864        -0.433345
 H        -2.504269         0.310740         0.357316
 H        -2.144826         1.431126         2.737316
 H        -1.972739         3.931110         1.054101
 H         1.347066         4.139300         3.122994
 H         0.880495         2.414159         3.484481
 H         1.765123         3.722123         0.975655
 H         1.961862         2.017997         1.496838
 H         0.000870         2.940240        -0.479162
