19
Iteration:  2348charge 0 multiplicity 1
 O         0.145054        -0.019792         0.833153
 C        -0.630414         1.143137         0.831354
 C        -2.042255         1.305621         0.434162
 C        -1.667127         1.778445         1.835158
 C        -1.141891         3.237630         1.541950
 O        -0.606698         3.896905         2.564873
 C         0.780071         3.320325         2.833354
 C         1.242177         2.875975         1.392674
 C        -0.047700         2.576260         0.659089
 H         0.862453         0.308670         0.280105
 H        -2.354109         1.820460        -0.368109
 H        -2.582724         0.350850         0.473589
 H        -1.962351         1.334455         2.785376
 H        -2.048657         3.696913         1.100878
 H         1.334358         4.077109         3.334088
 H         0.759633         2.532527         3.595307
 H         1.802083         3.536395         0.817198
 H         1.925729         1.981152         1.452753
 H        -0.016162         2.942971        -0.366339
