19
Iteration:   768
 O         0.075448         0.010259         1.073604
 C        -0.642245         1.160062         0.909822
 C        -2.045154         1.211872         0.341210
 C        -1.731269         1.962291         1.677961
 C        -1.124955         3.196569         1.455360
 O        -0.530832         3.649785         2.699498
 C         0.941626         3.377978         2.720967
 C         1.219782         3.015773         1.355403
 C        -0.068450         2.574415         0.649424
 H        -0.063431        -0.627605         0.308900
 H        -2.393202         1.791133        -0.532324
 H        -2.511280         0.316091         0.421182
 H        -2.418616         1.584070         2.652659
 H        -1.760344         4.076211         1.087158
 H         1.548160         4.291226         3.129682
 H         1.102850         2.461920         3.374992
 H         1.364446         3.944525         0.837625
 H         2.068382         2.308053         1.260066
 H         0.010954         2.764625        -0.412705
