19
Iteration:  1644
 O         0.234246         0.151999         1.028777
 C        -0.618399         1.299063         0.886402
 C        -2.033552         1.254024         0.430718
 C        -1.614553         1.780012         1.818146
 C        -1.192893         3.228595         1.517826
 O        -0.557232         3.840137         2.597807
 C         0.676187         3.134811         2.744055
 C         1.259188         2.845924         1.332232
 C        -0.083556         2.643398         0.579407
 H         0.051500        -0.580697         0.353508
 H        -2.429263         1.882163        -0.394093
 H        -2.514542         0.282385         0.309945
 H        -2.178505         1.557172         2.738878
 H        -1.865936         3.858712         0.921450
 H         1.417696         3.744585         3.328250
 H         0.487114         2.223583         3.184329
 H         1.972134         3.641979         0.902641
 H         1.768477         1.883541         1.247528
 H         0.007421         2.876761        -0.506481
