19
Iteration:  2539charge 0 multiplicity 1
 O         0.089715         0.032776         1.109689
 C        -0.597859         1.237418         0.795693
 C        -2.079076         1.172723         0.358659
 C        -1.705237         1.720172         1.739980
 C        -1.188752         3.288384         1.608947
 O        -0.483078         3.864948         2.673273
 C         0.810315         3.177236         2.723694
 C         1.253913         2.984884         1.228552
 C        -0.069788         2.646852         0.639220
 H         0.674498        -0.132697         0.347115
 H        -2.361682         1.831827        -0.418850
 H        -2.511531         0.143824         0.299945
 H        -2.141305         1.287662         2.585485
 H        -1.875070         4.036813         1.190542
 H         1.431412         3.924997         3.416047
 H         0.592896         2.129045         3.225817
 H         1.561945         3.973944         0.791975
 H         2.097640         2.336141         1.174437
 H        -0.006100         2.838665        -0.458284
