19
Iteration:   240charge 0 multiplicity 1
 O         0.110416         0.039239         1.106546
 C        -0.606673         1.157754         0.891357
 C        -2.120138         1.212409         0.351346
 C        -1.790858         1.846916         1.731005
 C        -1.172384         3.190549         1.441671
 O        -0.559236         3.717508         2.712352
 C         0.864018         3.331742         2.744005
 C         1.385806         3.060751         1.324913
 C         0.002027         2.596064         0.546342
 H         0.077516        -0.636124         0.464158
 H        -2.372919         1.868914        -0.420215
 H        -2.772183         0.277764         0.418805
 H        -2.601501         1.760411         2.585698
 H        -1.752822         4.062299         1.245894
 H         1.298890         4.166191         3.384747
 H         0.855404         2.384163         3.258176
 H         1.908284         3.799990         0.808940
 H         1.985354         2.190400         1.196723
 H         0.069202         2.725943        -0.595233
