19
Iteration:    28charge 0 multiplicity 1
 O         0.056281        -0.094587         0.984454
 C        -0.637769         1.154932         0.883833
 C        -2.066884         1.329875         0.343772
 C        -1.702011         1.731954         1.740312
 C        -1.157847         3.173621         1.573208
 O        -0.544765         3.903262         2.587463
 C         0.772482         3.390663         2.809590
 C         1.320042         2.978573         1.374533
 C        -0.004907         2.528352         0.632598
 H         0.771350        -0.077749         0.361497
 H        -2.372136         2.097419        -0.417131
 H        -2.571909         0.291822         0.262407
 H        -2.236236         1.318489         2.665781
 H        -1.961603         3.862677         1.154183
 H         1.431417         4.179347         3.276833
 H         0.727558         2.413580         3.393721
 H         1.780570         3.876374         0.832606
 H         2.220103         2.277828         1.387054
 H        -0.003229         2.825396        -0.547847
