19
Iteration:   229charge 0 multiplicity 1
 O         0.184295         0.028936         1.140887
 C        -0.685103         1.187723         0.903485
 C        -2.080417         1.259316         0.343840
 C        -1.810115         1.851732         1.646168
 C        -1.132009         3.209654         1.492258
 O        -0.521681         3.723971         2.686377
 C         0.831188         3.280509         2.756729
 C         1.307617         3.020242         1.254794
 C        -0.028715         2.573874         0.633994
 H        -0.254010        -0.594131         0.562624
 H        -2.232181         1.901263        -0.477284
 H        -2.703971         0.338511         0.283126
 H        -2.341229         1.522418         2.614027
 H        -1.798743         3.865725         0.960665
 H         1.471684         4.137479         3.153298
 H         1.039623         2.455092         3.416936
 H         1.599920         3.962128         0.879638
 H         2.107886         2.326951         1.276847
 H        -0.063753         2.901999        -0.462447
