19
Iteration:   371charge 0 multiplicity 1
 O         0.134162         0.128954         0.967555
 C        -0.649179         1.267948         0.813006
 C        -2.103678         1.125745         0.442168
 C        -1.672530         1.840118         1.773734
 C        -1.160651         3.196909         1.453679
 O        -0.484423         3.836121         2.577638
 C         0.729313         3.243528         2.817219
 C         1.285742         2.917266         1.399704
 C         0.019920         2.586451         0.568894
 H        -0.509375        -0.554291         0.808367
 H        -2.562860         1.721008        -0.331476
 H        -2.556592         0.123330         0.546769
 H        -1.977933         1.351605         2.832612
 H        -1.851890         3.989793         1.100498
 H         1.317040         4.019930         3.446270
 H         0.693102         2.351988         3.450662
 H         1.764468         3.794839         0.980775
 H         2.023544         2.126017         1.483118
 H         0.136121         2.969206        -0.458509
