19
Iteration:  2124
 O         0.097813         0.037004         1.055534
 C        -0.555941         1.224034         0.821461
 C        -2.021867         1.260327         0.369264
 C        -1.777328         1.747795         1.799610
 C        -1.211401         3.162853         1.581568
 O        -0.500661         3.822975         2.634404
 C         0.745312         3.222908         2.747099
 C         1.254551         2.963243         1.268744
 C        -0.008768         2.665082         0.601249
 H         0.836111        -0.065204         0.465070
 H        -2.250527         2.065883        -0.314689
 H        -2.670294         0.319880         0.237778
 H        -2.151567         1.375487         2.700407
 H        -2.037851         3.863687         1.295502
 H         1.491980         3.870954         3.104580
 H         0.775852         2.235615         3.397179
 H         1.738631         3.941583         0.840682
 H         1.947380         2.136670         1.224275
 H        -0.078852         3.003488        -0.443038
