19
Iteration:  3699
 O         0.130707         0.119038         0.869346
 C        -0.661297         1.255540         0.846259
 C        -2.015994         1.149673         0.401730
 C        -1.702985         1.833005         1.751151
 C        -1.156304         3.203860         1.495908
 O        -0.519922         3.871217         2.656824
 C         0.713693         3.124635         2.816641
 C         1.263019         2.935504         1.378851
 C        -0.078464         2.618982         0.682437
 H         1.040257         0.350362         1.052814
 H        -2.265583         1.795517        -0.477642
 H        -2.557205         0.112656         0.271400
 H        -2.046130         1.521086         2.797280
 H        -1.850076         3.961715         1.109643
 H         1.515460         3.632251         3.378272
 H         0.567925         2.092121         3.241222
 H         1.781644         3.764162         0.898024
 H         1.874876         1.999369         1.092546
 H         0.072683         2.940909        -0.448613
