19
Iteration:  1860
 O         0.218486         0.122245         1.030125
 C        -0.614919         1.199486         0.865371
 C        -2.051599         1.188274         0.396370
 C        -1.771745         1.880812         1.724667
 C        -1.196140         3.273122         1.511087
 O        -0.559416         3.693755         2.667780
 C         0.783032         3.190529         2.780743
 C         1.308348         2.955131         1.314949
 C        -0.011997         2.654556         0.552859
 H        -0.086964        -0.564313         0.483722
 H        -2.579514         1.849066        -0.367621
 H        -2.557144         0.273398         0.525335
 H        -2.346323         1.524113         2.565704
 H        -1.956867         4.093472         1.319931
 H         1.303371         4.035560         3.357613
 H         0.869062         2.350182         3.529978
 H         1.787470         3.720518         0.784505
 H         1.974867         2.051077         1.217708
 H        -0.033318         2.973081        -0.523817
