19
Iteration:  2680charge 0 multiplicity 1
 O         0.048820         0.030968         0.833162
 C        -0.669189         1.248769         0.830074
 C        -2.024040         1.159891         0.340691
 C        -1.691596         1.750591         1.788240
 C        -1.124443         3.234250         1.555684
 O        -0.534946         3.812663         2.679609
 C         0.765487         3.330066         2.836404
 C         1.291279         2.938794         1.352965
 C        -0.040876         2.625480         0.605657
 H         0.662183         0.133763         1.612031
 H        -2.482668         1.757654        -0.404972
 H        -2.515059         0.107503         0.520518
 H        -2.249716         1.193251         2.571566
 H        -1.672968         4.122396         0.984449
 H         1.500947         4.099520         3.392431
 H         0.942162         2.519343         3.497446
 H         1.913808         3.683117         0.724929
 H         1.938794         2.043271         1.469800
 H        -0.092610         2.852029        -0.486731
