19
Iteration:  4059
 O         0.149861         0.036373         0.755588
 C        -0.495877         1.238827         0.819695
 C        -2.067744         1.181509         0.509059
 C        -1.677214         1.848800         1.732928
 C        -1.154857         3.281265         1.492733
 O        -0.591786         3.835558         2.654906
 C         0.708902         3.109468         2.799950
 C         1.247142         2.887716         1.384306
 C        -0.077227         2.663211         0.646098
 H         0.687805         0.026151         1.622143
 H        -2.419495         1.853704        -0.258169
 H        -2.553670         0.259356         0.615903
 H        -1.964220         1.707024         2.774965
 H        -1.957817         3.955261         1.047566
 H         1.354827         3.826938         3.481089
 H         0.522926         2.211325         3.454418
 H         1.626001         3.913287         1.123249
 H         2.095622         2.236315         1.224682
 H         0.131251         2.991339        -0.475242
