19
Iteration:  4203charge 0 multiplicity 1
 O         0.079991         0.071158         0.900190
 C        -0.625156         1.246511         0.860342
 C        -2.001677         1.199498         0.323478
 C        -1.711019         1.769076         1.804058
 C        -1.188978         3.233758         1.538561
 O        -0.520536         3.760023         2.653988
 C         0.738386         3.140380         2.813353
 C         1.232782         3.019938         1.363791
 C        -0.041504         2.713849         0.592026
 H         0.885788         0.175890         1.436752
 H        -2.226995         1.821691        -0.550977
 H        -2.435499         0.233146         0.523840
 H        -2.032721         1.360299         2.736948
 H        -1.987207         3.978924         1.172693
 H         1.476464         3.765327         3.434644
 H         0.836091         2.147205         3.194477
 H         1.801479         3.862185         0.821561
 H         1.968174         2.158045         1.195816
 H         0.172513         2.787682        -0.573440
