19
Iteration:  2292
 O         0.107771         0.061500         0.956082
 C        -0.642278         1.247784         0.720160
 C        -2.029679         1.157131         0.396636
 C        -1.670629         1.769485         1.713560
 C        -1.147824         3.207793         1.521670
 O        -0.592856         3.787008         2.756825
 C         0.813355         3.410775         2.765045
 C         1.245184         2.833242         1.398642
 C         0.024210         2.680338         0.596257
 H        -0.175287        -0.612110         0.362826
 H        -2.528139         1.734214        -0.255057
 H        -2.337032         0.074988         0.508924
 H        -2.026921         1.520988         2.662906
 H        -1.974767         3.961748         1.322518
 H         1.341810         4.346934         2.848716
 H         0.902802         2.620491         3.527608
 H         1.789315         3.566353         0.857026
 H         1.889935         1.949696         1.660286
 H         0.025204         3.048211        -0.434747
