19
Iteration:  1531charge 0 multiplicity 1
 O         0.132325         0.079474         1.072226
 C        -0.597352         1.218309         0.819345
 C        -2.044147         1.190192         0.233133
 C        -1.724808         1.769449         1.753837
 C        -1.199087         3.194338         1.639128
 O        -0.492795         3.860081         2.670130
 C         0.875929         3.243686         2.763190
 C         1.214523         3.002198         1.331481
 C        -0.050897         2.563239         0.604886
 H        -0.372400        -0.570137         0.624457
 H        -2.620062         1.655324        -0.563975
 H        -2.389352         0.260255         0.475228
 H        -2.430217         1.369737         2.437476
 H        -1.790104         4.042320         1.150156
 H         1.418006         3.883831         3.345751
 H         0.719994         2.331091         3.231607
 H         1.482283         3.976490         0.904751
 H         2.205082         2.483213         1.074631
 H         0.113855         2.825296        -0.480124
