19
Iteration:  1244
 O         0.224665         0.138504         1.016344
 C        -0.678117         1.283651         0.866563
 C        -2.064569         1.216630         0.386229
 C        -1.696919         1.799602         1.813332
 C        -1.203970         3.217709         1.547656
 O        -0.550057         3.898258         2.579576
 C         0.805461         3.141389         2.758153
 C         1.261553         2.860206         1.358479
 C        -0.062481         2.581698         0.596356
 H         0.542417        -0.271483         0.126569
 H        -2.428434         1.915381        -0.354855
 H        -2.620194         0.208556         0.365336
 H        -2.071637         1.460563         2.715558
 H        -1.991007         3.925696         1.106862
 H         1.341210         3.585797         3.538736
 H         0.576134         2.236832         3.404927
 H         1.727747         3.742601         0.904392
 H         2.016137         2.059993         1.119235
 H         0.036866         2.810040        -0.568331
