19
Iteration:   512charge 0 multiplicity 1
 O         0.173735         0.054709         1.088055
 C        -0.702730         1.185501         0.830184
 C        -2.022578         1.133429         0.371949
 C        -1.745291         1.843449         1.722302
 C        -1.163493         3.222675         1.571111
 O        -0.417839         3.974599         2.599000
 C         0.771747         3.149640         2.775484
 C         1.216010         2.904340         1.345235
 C        -0.092342         2.615002         0.575197
 H         0.817089         0.041039         0.379739
 H        -2.286800         1.946674        -0.359557
 H        -2.534393         0.253327         0.326345
 H        -2.354687         1.367922         2.638476
 H        -1.952320         3.898061         1.194407
 H         1.535630         3.565502         3.521450
 H         0.420839         2.215893         3.257479
 H         1.626565         3.868484         0.851345
 H         1.902540         2.100729         1.081812
 H        -0.148298         3.092936        -0.367377
