19
Iteration:  3632charge 0 multiplicity 1
 O         0.101506         0.114144         0.934191
 C        -0.647997         1.286675         0.794414
 C        -2.006628         1.209906         0.358311
 C        -1.743605         1.769721         1.712242
 C        -1.264842         3.209239         1.608119
 O        -0.489342         3.785796         2.698286
 C         0.777535         3.178099         2.836852
 C         1.258522         2.967093         1.283962
 C         0.044364         2.615666         0.569003
 H         0.450274        -0.164906         1.825410
 H        -2.283418         1.770602        -0.582005
 H        -2.474516         0.228092         0.424925
 H        -2.042079         1.440803         2.680876
 H        -2.035300         3.847061         1.196885
 H         1.348839         3.944185         3.299015
 H         0.731021         2.189650         3.388929
 H         1.728822         3.804198         0.795167
 H         2.023740         2.226323         1.199354
 H         0.001086         2.945023        -0.497799
