19
Iteration:   216charge 0 multiplicity 1
 O         0.128224         0.094086         1.139569
 C        -0.628470         1.216075         0.885854
 C        -1.975637         1.246314         0.239819
 C        -1.804535         1.845453         1.737111
 C        -1.146861         3.235772         1.549285
 O        -0.485481         3.749652         2.651826
 C         0.884986         3.257861         2.707951
 C         1.155072         2.973369         1.329296
 C        -0.064082         2.517998         0.628047
 H        -0.211483        -0.830822         0.897266
 H        -2.232655         1.794482        -0.678442
 H        -2.487039         0.350060         0.300357
 H        -2.176638         1.355587         2.561501
 H        -1.616059         4.151251         1.206609
 H         1.483427         4.061962         3.184014
 H         0.851080         2.405352         3.339323
 H         1.368976         3.875280         0.836875
 H         1.997733         2.462929         1.023155
 H        -0.051505         2.824463        -0.443151
