19
Iteration:  3998charge 0 multiplicity 1
 O         0.094289         0.060639         0.825565
 C        -0.625892         1.214983         0.808477
 C        -2.021513         1.216569         0.377336
 C        -1.672087         1.766782         1.714365
 C        -1.176028         3.157247         1.580950
 O        -0.526805         3.807575         2.706200
 C         0.801810         3.313786         2.847863
 C         1.212120         2.903513         1.402171
 C        -0.059877         2.656680         0.545079
 H         0.817589        -0.010216         1.482966
 H        -2.331207         2.022924        -0.384985
 H        -2.580093         0.129574         0.453095
 H        -2.156442         1.615576         2.664759
 H        -1.964779         3.816740         1.174039
 H         1.337589         4.108007         3.346390
 H         0.843088         2.419186         3.498605
 H         1.670590         3.745158         0.900314
 H         1.942720         2.018889         1.317187
 H         0.087894         2.950259        -0.473507
