19
Iteration:  4049
 O         0.165336         0.052958         0.764171
 C        -0.651278         1.222108         0.796749
 C        -1.997238         1.219661         0.478073
 C        -1.611738         1.859230         1.803172
 C        -1.175461         3.266283         1.546348
 O        -0.511536         3.833399         2.637892
 C         0.654694         3.121370         2.833944
 C         1.198160         2.968237         1.423292
 C        -0.039291         2.607007         0.550857
 H         0.610197        -0.154576         1.657613
 H        -2.451266         1.683112        -0.394408
 H        -2.462950         0.232856         0.603477
 H        -2.064642         1.413179         2.608625
 H        -1.893762         3.930579         0.967472
 H         1.334600         3.933846         3.350939
 H         0.617922         2.153358         3.390488
 H         1.713307         3.856364         1.123253
 H         1.845312         2.102841         1.378427
 H         0.009543         2.967393        -0.509442
