19
Iteration:   904
 O         0.181787         0.061805         0.933878
 C        -0.661812         1.189918         0.729779
 C        -2.145781         1.099592         0.485469
 C        -1.606483         1.809322         1.795189
 C        -1.173095         3.246217         1.537172
 O        -0.463725         4.000159         2.619590
 C         0.728210         3.222469         2.807161
 C         1.249278         2.872713         1.435014
 C        -0.032746         2.692402         0.516623
 H        -0.181955        -0.667741         0.440800
 H        -2.520074         1.663792        -0.407315
 H        -2.618597        -0.011774         0.616125
 H        -1.973144         1.563841         2.709843
 H        -1.965599         3.870945         0.972900
 H         1.507095         3.687012         3.417513
 H         0.393870         2.224452         3.366822
 H         2.096477         3.608871         1.072122
 H         1.796996         1.876126         1.549058
 H        -0.055247         3.080120        -0.462952
