19
Iteration:  1863charge 0 multiplicity 1
 O         0.222430         0.144289         1.035482
 C        -0.599189         1.191497         0.842675
 C        -2.072438         1.194864         0.384039
 C        -1.790200         1.888936         1.735709
 C        -1.201097         3.273700         1.507901
 O        -0.550369         3.663604         2.654129
 C         0.786841         3.201454         2.780921
 C         1.276015         2.936151         1.331649
 C        -0.003956         2.658610         0.563918
 H        -0.080132        -0.587397         0.418196
 H        -2.565232         1.830018        -0.298621
 H        -2.527825         0.283615         0.600003
 H        -2.385337         1.496575         2.632990
 H        -1.920024         4.089639         1.244510
 H         1.475088         4.047122         3.266894
 H         0.958844         2.410614         3.550625
 H         1.788823         3.803872         0.812928
 H         1.946078         2.150846         1.335177
 H         0.062078         2.870580        -0.547095
