19
Iteration:  1599
 O         0.151543         0.100731         1.107017
 C        -0.716201         1.285096         0.795382
 C        -2.139814         1.088498         0.379639
 C        -1.752677         1.826986         1.655166
 C        -1.108908         3.217120         1.481356
 O        -0.510008         3.788476         2.663738
 C         0.855122         3.171820         2.811654
 C         1.265752         2.998184         1.346741
 C        -0.026661         2.673246         0.604692
 H         0.810567        -0.065213         0.347300
 H        -2.671962         1.534358        -0.416584
 H        -2.605997         0.076117         0.677126
 H        -2.106819         1.339690         2.578571
 H        -1.826009         3.992894         1.083739
 H         1.399907         3.913823         3.414215
 H         0.729661         2.253536         3.278264
 H         1.788604         3.852525         0.784402
 H         2.004940         2.198757         1.306829
 H        -0.055251         3.012351        -0.466160
