19
Iteration:   474
 O         0.147767         0.130005         1.142167
 C        -0.596136         1.225003         0.837864
 C        -2.094478         1.197066         0.447406
 C        -1.769175         1.860840         1.739611
 C        -1.153192         3.171695         1.459120
 O        -0.560578         3.788224         2.655660
 C         0.775956         3.157418         2.741748
 C         1.303002         2.910402         1.279122
 C        -0.027433         2.676088         0.551973
 H         0.675148        -0.126548         0.289637
 H        -2.482955         1.818792        -0.365145
 H        -2.691753         0.197690         0.488669
 H        -2.013604         1.731386         2.709555
 H        -1.819123         3.973912         1.132838
 H         1.370693         3.685494         3.440115
 H         0.508882         2.136493         3.030443
 H         1.831831         3.816836         0.966063
 H         2.077517         2.102301         1.242349
 H         0.135703         3.055812        -0.564637
