19
Iteration:   283
 O         0.119445         0.023437         1.078698
 C        -0.678771         1.219563         0.736477
 C        -2.092967         1.184405         0.407481
 C        -1.638101         1.779218         1.772730
 C        -1.162522         3.234236         1.520460
 O        -0.501789         3.928332         2.587723
 C         0.809564         3.265215         2.837174
 C         1.209018         2.896883         1.384269
 C        -0.031081         2.604034         0.522889
 H         0.513221        -0.236144         0.259216
 H        -2.521017         1.759966        -0.347218
 H        -2.630677         0.196308         0.489948
 H        -2.085037         1.274903         2.738764
 H        -1.932728         3.872622         1.042530
 H         1.507385         3.978328         3.398904
 H         0.628285         2.370614         3.388922
 H         1.827323         3.652902         1.002147
 H         1.932523         2.140602         1.496397
 H         0.148317         3.027930        -0.499000
