19
Iteration:  1744charge 0 multiplicity 1
 O         0.195984         0.101739         1.011916
 C        -0.653589         1.214292         0.748680
 C        -2.112394         1.221914         0.336564
 C        -1.732682         1.720400         1.720108
 C        -1.193766         3.235098         1.604519
 O        -0.521472         3.929451         2.653241
 C         0.804649         3.343896         2.824143
 C         1.260060         2.819915         1.378662
 C        -0.043473         2.546507         0.596386
 H         0.372126        -0.358746         0.203630
 H        -2.524445         1.837805        -0.540451
 H        -2.501838         0.209251         0.494586
 H        -2.008960         1.155479         2.623716
 H        -2.090985         3.772225         1.375684
 H         1.447758         4.166599         3.269237
 H         0.887452         2.489947         3.422020
 H         2.025048         3.565640         0.786291
 H         1.817943         1.917909         1.431708
 H         0.089798         2.992773        -0.404429
