19
Iteration:  4962
 O         0.199925         0.126773         0.849486
 C        -0.644500         1.228707         0.821138
 C        -2.067807         1.191435         0.416930
 C        -1.758029         1.893056         1.725864
 C        -1.175582         3.245564         1.530547
 O        -0.538529         3.786195         2.644362
 C         0.674612         3.111228         2.836487
 C         1.261310         2.899217         1.389009
 C         0.030403         2.624100         0.590772
 H         0.921214         0.246231         1.433749
 H        -2.554772         1.525697        -0.581728
 H        -2.565545         0.228599         0.544380
 H        -1.984181         1.548308         2.748154
 H        -1.765787         4.085868         1.043807
 H         1.346386         3.661825         3.571854
 H         0.560623         2.090518         3.264251
 H         1.499656         3.927933         1.158362
 H         2.147914         2.258918         1.369320
 H         0.216657         2.963830        -0.382595
