19
Iteration:   260charge 0 multiplicity 1
 O         0.003040         0.013976         1.083267
 C        -0.622969         1.288025         0.841047
 C        -2.063463         1.139704         0.442030
 C        -1.720633         1.857694         1.685382
 C        -1.114562         3.229476         1.457286
 O        -0.545872         3.756465         2.652613
 C         0.792462         3.297169         2.759000
 C         1.295434         2.952494         1.338101
 C         0.012486         2.608309         0.606552
 H         0.384909        -0.193715         0.179109
 H        -2.515175         1.605546        -0.408012
 H        -2.387221         0.101715         0.509725
 H        -1.916429         1.418176         2.665732
 H        -1.831463         3.978291         1.060679
 H         1.303228         4.228764         3.138244
 H         0.903782         2.501826         3.472184
 H         1.826015         3.784419         0.952696
 H         2.089208         2.251300         1.332928
 H         0.128597         2.984059        -0.414607
