19
Iteration:  4434
 O         0.159082         0.061281         0.917179
 C        -0.554957         1.206337         0.771086
 C        -2.021866         1.174642         0.382337
 C        -1.727065         1.864616         1.766155
 C        -1.154124         3.246881         1.504279
 O        -0.522786         3.798534         2.719276
 C         0.679313         3.100869         2.850388
 C         1.186733         3.013199         1.341054
 C        -0.045511         2.641132         0.560896
 H         0.867611         0.277088         1.587777
 H        -2.290630         1.800385        -0.410206
 H        -2.527554         0.259842         0.419819
 H        -2.205032         1.567688         2.665817
 H        -1.779306         4.087303         1.128736
 H         1.435299         3.584746         3.405800
 H         0.678386         2.049028         3.255841
 H         1.624433         3.931965         0.815880
 H         1.997160         2.208656         1.151797
 H        -0.081646         2.966849        -0.512037
