19
Iteration:   709
 O         0.182039         0.086934         1.110254
 C        -0.621014         1.233899         0.830307
 C        -2.079590         1.283630         0.402173
 C        -1.654632         1.829881         1.800407
 C        -1.157101         3.218076         1.550189
 O        -0.497636         3.877665         2.589477
 C         0.739489         3.168372         2.794962
 C         1.175465         2.841129         1.299547
 C        -0.063864         2.580678         0.500418
 H         0.533839        -0.318607         0.339204
 H        -2.306329         2.033729        -0.369307
 H        -2.633075         0.279995         0.352761
 H        -1.893924         1.399749         2.680405
 H        -1.891317         3.925558         1.216248
 H         1.492804         3.838125         3.291747
 H         0.508299         2.259034         3.397387
 H         1.660989         3.823746         1.115722
 H         1.939365         2.051300         1.107566
 H        -0.172298         2.874055        -0.648432
