19
Iteration:  3825
 O         0.106280         0.067287         0.888009
 C        -0.645737         1.239892         0.869393
 C        -2.027900         1.243188         0.363585
 C        -1.707748         1.743607         1.762152
 C        -1.154572         3.219799         1.525069
 O        -0.518313         3.796489         2.692612
 C         0.689052         3.185235         2.805710
 C         1.309050         2.935031         1.284712
 C        -0.086282         2.673408         0.615335
 H         0.956268         0.183532         1.436023
 H        -2.267636         1.887496        -0.346279
 H        -2.399974         0.180797         0.371025
 H        -2.027914         1.433031         2.794888
 H        -1.798147         3.964327         1.100705
 H         1.290739         3.909757         3.259550
 H         0.751187         2.221435         3.332669
 H         1.851548         3.883865         1.251266
 H         2.030307         2.116679         1.101247
 H        -0.059467         2.979327        -0.498565
