19
Iteration:  4600
 O         0.140891         0.086051         0.791524
 C        -0.609349         1.262312         0.859214
 C        -2.060151         1.161095         0.375250
 C        -1.759723         1.753905         1.724106
 C        -1.128602         3.240571         1.556040
 O        -0.520722         3.904335         2.619976
 C         0.718603         3.158126         2.836858
 C         1.231530         2.969287         1.404662
 C         0.015447         2.567840         0.681024
 H         1.009664         0.304480         1.268708
 H        -2.336785         1.804874        -0.373859
 H        -2.490610         0.121507         0.575875
 H        -2.293453         1.374755         2.691129
 H        -1.856439         3.899943         1.077624
 H         1.306099         3.720199         3.449128
 H         0.435481         2.166751         3.290383
 H         1.714629         3.782305         0.946718
 H         1.985774         2.128201         1.435518
 H        -0.038633         2.961143        -0.390804
