19
Iteration:  3637
 O         0.090962         0.116373         0.919396
 C        -0.597840         1.281033         0.813805
 C        -2.049126         1.179551         0.364406
 C        -1.747117         1.774562         1.705040
 C        -1.207709         3.225715         1.608224
 O        -0.508831         3.796090         2.692405
 C         0.780782         3.149457         2.843004
 C         1.231690         2.991043         1.276387
 C         0.054297         2.622387         0.538933
 H         0.283881        -0.058882         1.869360
 H        -2.358540         1.692456        -0.522913
 H        -2.485059         0.159588         0.430478
 H        -2.059379         1.336451         2.704179
 H        -2.085271         3.906817         1.370367
 H         1.406435         3.957403         3.327469
 H         0.619841         2.201810         3.350435
 H         1.833888         3.882666         0.923567
 H         2.165244         2.203650         1.331125
 H         0.036617         2.901033        -0.568963
