19
Iteration:  1722
 O         0.161940         0.060929         0.943855
 C        -0.610226         1.209533         0.867164
 C        -2.052552         1.278380         0.373567
 C        -1.635608         1.716550         1.804331
 C        -1.151374         3.190747         1.514297
 O        -0.551025         3.828033         2.603425
 C         0.743884         3.332897         2.779396
 C         1.227816         2.885560         1.397837
 C        -0.046459         2.598961         0.633074
 H        -0.084971        -0.704802         0.325373
 H        -2.274370         2.215612        -0.265655
 H        -2.601956         0.396130         0.322315
 H        -2.191204         1.518373         2.692190
 H        -1.918649         3.807742         1.061151
 H         1.462244         4.100498         3.189497
 H         0.729511         2.529596         3.479497
 H         1.792363         3.692242         0.753015
 H         1.871025         2.053652         1.406181
 H        -0.008410         3.079493        -0.344254
