19
Iteration:  2879charge 0 multiplicity 1
 O         0.024986        -0.011559         0.759672
 C        -0.607639         1.211655         0.798228
 C        -2.041542         1.235571         0.448901
 C        -1.697705         1.745485         1.801198
 C        -1.089814         3.159965         1.532897
 O        -0.547712         3.839349         2.599761
 C         0.747961         3.321891         2.858325
 C         1.264253         3.042617         1.400331
 C         0.031570         2.533217         0.650915
 H         0.657673         0.057655         1.473420
 H        -2.542998         1.996157        -0.180767
 H        -2.493168         0.294259         0.400212
 H        -2.243333         1.482552         2.725199
 H        -1.817508         3.873595         0.970982
 H         1.306491         4.120421         3.432625
 H         0.692378         2.332609         3.346512
 H         1.627408         3.990994         0.943940
 H         2.069102         2.254274         1.445167
 H         0.072680         2.806915        -0.399588
