19
Iteration:  3533charge 0 multiplicity 1
 O         0.116309         0.013185         0.817319
 C        -0.607695         1.255159         0.823432
 C        -2.042954         1.240509         0.463171
 C        -1.626490         1.783900         1.747448
 C        -1.115688         3.194575         1.528205
 O        -0.522106         3.881531         2.655967
 C         0.676621         3.180213         2.793830
 C         1.174418         2.943335         1.352842
 C        -0.009084         2.661962         0.626678
 H         0.616115        -0.239398         1.665935
 H        -2.346683         1.949381        -0.353159
 H        -2.516143         0.237252         0.504000
 H        -1.915218         1.330722         2.713199
 H        -1.844763         3.758823         1.002229
 H         1.272959         3.749459         3.473608
 H         0.457069         2.254767         3.336231
 H         1.543725         3.940392         1.136586
 H         2.053261         2.201988         1.205605
 H         0.034553         2.853472        -0.484524
