19
Iteration:  2958charge 0 multiplicity 1
 O         0.262641         0.088593         0.929451
 C        -0.674766         1.268197         0.784052
 C        -2.109530         1.231865         0.456726
 C        -1.772426         1.861340         1.747256
 C        -1.158219         3.272717         1.478377
 O        -0.511469         3.767363         2.671348
 C         0.718209         3.198587         2.816347
 C         1.240709         2.834825         1.369682
 C        -0.044346         2.619097         0.546375
 H         1.057247         0.547986         1.150504
 H        -2.511654         1.631765        -0.414510
 H        -2.311804         0.106863         0.647907
 H        -2.189440         1.507198         2.740232
 H        -1.960781         4.021057         1.058388
 H         1.394903         3.768765         3.422744
 H         0.641260         2.199535         3.242319
 H         1.824391         3.666176         1.034457
 H         1.945429         1.953089         1.408640
 H        -0.053254         2.928237        -0.485012
