19
Iteration:  1273charge 0 multiplicity 1
 O         0.218146         0.159027         1.083629
 C        -0.578186         1.250837         0.771065
 C        -2.088459         1.126479         0.470819
 C        -1.659715         1.928150         1.776857
 C        -1.170341         3.261154         1.453076
 O        -0.536327         3.789251         2.614593
 C         0.764871         3.017083         2.762114
 C         1.231400         2.957730         1.357481
 C        -0.091395         2.697536         0.526028
 H         0.007277        -0.643070         0.560902
 H        -2.541580         1.650910        -0.413562
 H        -2.611175         0.290421         0.765695
 H        -1.980352         1.495529         2.751260
 H        -1.851467         4.020826         1.125680
 H         1.246896         3.552218         3.660117
 H         0.440953         2.009410         3.034604
 H         1.841021         3.889183         1.055611
 H         1.871735         2.135161         1.140563
 H         0.028815         3.032507        -0.451958
