19
Iteration:  4490charge 0 multiplicity 1
 O         0.163606         0.059474         0.893942
 C        -0.600520         1.262152         0.873138
 C        -2.019638         1.240698         0.339826
 C        -1.736484         1.824364         1.691347
 C        -1.236676         3.239806         1.532332
 O        -0.551842         3.756804         2.736806
 C         0.759690         3.186613         2.778678
 C         1.256091         2.934054         1.356664
 C        -0.001059         2.644134         0.612117
 H         0.768501         0.068442         1.608596
 H        -2.380463         1.680902        -0.496235
 H        -2.609095         0.256585         0.491485
 H        -2.079327         1.449299         2.615603
 H        -1.958541         3.981789         1.161126
 H         1.371888         3.897296         3.210800
 H         0.683623         2.216875         3.355035
 H         1.499856         3.890244         0.829117
 H         2.099905         2.049278         1.198681
 H         0.010160         2.931238        -0.468621
