19
Iteration:     6charge 0 multiplicity 1
 O         0.117589         0.072953         1.073542
 C        -0.639114         1.221652         0.824442
 C        -2.049803         1.174522         0.400761
 C        -1.701141         1.819186         1.749922
 C        -1.140627         3.193010         1.492561
 O        -0.537875         3.844106         2.607361
 C         0.746132         3.222098         2.778593
 C         1.248790         2.942847         1.382933
 C        -0.028986         2.652890         0.627163
 H         0.352979        -0.289399         0.193930
 H        -2.275270         1.911889        -0.425467
 H        -2.688076         0.265336         0.372127
 H        -2.135418         1.406040         2.678726
 H        -1.677343         3.942692         0.827909
 H         1.476970         3.909744         3.243293
 H         0.732876         2.201305         3.260767
 H         1.841737         3.774453         0.888208
 H         1.960225         2.082129         1.303255
 H         0.161541         2.876565        -0.494475
