19
Iteration:  4495
 O         0.173199         0.071187         0.883313
 C        -0.614684         1.227895         0.846196
 C        -2.008417         1.207870         0.364518
 C        -1.716152         1.817349         1.650884
 C        -1.263138         3.243791         1.581120
 O        -0.545775         3.804264         2.765118
 C         0.754961         3.173380         2.751800
 C         1.266439         2.936308         1.335025
 C         0.002353         2.595615         0.614744
 H         0.743309        -0.018467         1.729890
 H        -2.279401         1.958767        -0.557717
 H        -2.677997         0.401555         0.394394
 H        -2.169282         1.500529         2.666502
 H        -1.922504         4.002120         1.138418
 H         1.248422         4.056562         3.375893
 H         0.680823         2.278980         3.429460
 H         1.608355         3.866528         0.902207
 H         1.891895         2.130656         1.055805
 H         0.034794         2.849922        -0.435518
