19
Iteration:   679
 O         0.219923         0.158338         0.961797
 C        -0.606541         1.259939         0.863645
 C        -2.093814         1.136792         0.560493
 C        -1.813009         1.888578         1.768484
 C        -1.117355         3.279358         1.477940
 O        -0.468611         3.875012         2.544954
 C         0.689071         3.110854         2.770448
 C         1.251355         2.880767         1.372884
 C         0.001438         2.602657         0.582887
 H         0.193553        -0.436089         0.163435
 H        -2.496514         1.611300        -0.239155
 H        -2.444522         0.056745         0.704039
 H        -2.198342         1.556773         2.757045
 H        -1.762457         4.019155         0.975331
 H         1.425063         3.613037         3.485379
 H         0.230225         2.179353         3.127954
 H         1.816099         3.724814         1.220936
 H         1.792671         1.914597         1.187306
 H        -0.050514         2.796626        -0.442718
