19
Iteration:  2667
 O         0.113592         0.024060         0.835997
 C        -0.600677         1.211325         0.763899
 C        -2.124428         1.273265         0.445690
 C        -1.698111         1.758393         1.758310
 C        -1.123033         3.130964         1.546558
 O        -0.542942         3.847585         2.649167
 C         0.782746         3.329809         2.827098
 C         1.243486         2.902746         1.383917
 C         0.016104         2.597734         0.591970
 H         0.383712        -0.164563         1.750108
 H        -2.526048         2.014897        -0.341181
 H        -2.473955         0.193884         0.260783
 H        -2.010516         1.478124         2.746896
 H        -2.018817         3.764344         1.189223
 H         1.344838         4.210503         3.243322
 H         0.663989         2.525554         3.484324
 H         1.686158         3.893457         0.997431
 H         2.001646         2.071170         1.309265
 H         0.118156         3.076041        -0.412566
