19
Iteration:  2912
 O         0.115080        -0.037221         0.796520
 C        -0.544771         1.226278         0.747408
 C        -2.008894         1.219342         0.488787
 C        -1.670085         1.788668         1.801134
 C        -1.188459         3.265543         1.562770
 O        -0.542103         3.899435         2.598265
 C         0.712876         3.181077         2.830878
 C         1.198431         2.951505         1.403722
 C        -0.012940         2.644375         0.556413
 H         0.593635        -0.154029         1.637423
 H        -2.489128         1.962286        -0.084937
 H        -2.499807         0.204412         0.448357
 H        -2.145179         1.534605         2.797088
 H        -1.935629         4.043193         1.140990
 H         1.284359         3.882060         3.472706
 H         0.646129         2.243118         3.379881
 H         1.844189         3.762792         1.047744
 H         1.865860         2.039034         1.441898
 H         0.086151         2.831108        -0.496780
