19
Iteration:  2346charge 0 multiplicity 1
 O         0.154929        -0.010643         0.833716
 C        -0.640397         1.153005         0.822764
 C        -2.042063         1.303435         0.441228
 C        -1.674895         1.773326         1.827670
 C        -1.140236         3.230388         1.553995
 O        -0.608869         3.903352         2.573937
 C         0.783551         3.331672         2.812829
 C         1.231544         2.860083         1.397804
 C        -0.040561         2.580745         0.676670
 H         0.872376         0.230864         0.272522
 H        -2.314919         1.870940        -0.410044
 H        -2.639693         0.332495         0.469701
 H        -1.939729         1.298860         2.707731
 H        -1.975343         3.724481         1.063465
 H         1.304428         4.049999         3.269948
 H         0.764447         2.512088         3.659503
 H         1.809987         3.509158         0.765809
 H         1.947756         2.022945         1.455015
 H        -0.041696         2.838583        -0.363789
