19
Iteration:  2341charge 0 multiplicity 1
 O         0.170955         0.014682         0.839946
 C        -0.654367         1.193810         0.813415
 C        -2.063247         1.264344         0.448257
 C        -1.680698         1.766215         1.792563
 C        -1.154793         3.179620         1.574743
 O        -0.588501         3.926060         2.615262
 C         0.766633         3.340164         2.765039
 C         1.221187         2.824385         1.415980
 C        -0.030872         2.572036         0.699595
 H         0.958102         0.038011         0.204128
 H        -2.266312         2.054678        -0.461550
 H        -2.678685         0.409554         0.443408
 H        -2.033231         1.160794         2.707429
 H        -1.784479         3.903934         0.964076
 H         1.426697         4.272847         3.197184
 H         0.731365         2.584381         3.537834
 H         1.804562         3.580213         0.751166
 H         1.958590         2.020219         1.506263
 H        -0.035627         2.700569        -0.436478
