19
Iteration:   529
 O         0.138278         0.058198         1.072742
 C        -0.598751         1.208950         0.861702
 C        -2.124917         1.245092         0.396650
 C        -1.710151         1.784749         1.757365
 C        -1.162887         3.259686         1.508243
 O        -0.539727         3.821259         2.633292
 C         0.743082         3.228802         2.736814
 C         1.308219         2.924987         1.301137
 C        -0.043822         2.643545         0.587200
 H         0.597397        -0.288655         0.265255
 H        -2.547293         1.711124        -0.483539
 H        -2.613519         0.185418         0.676409
 H        -2.041701         1.453439         2.698193
 H        -1.807427         4.056264         1.109546
 H         1.411127         3.790159         3.351347
 H         0.701835         2.262975         3.294705
 H         1.969296         3.743147         0.958625
 H         1.930476         1.988232         1.409893
 H         0.142726         2.946070        -0.552917
