19
Iteration:  2636charge 0 multiplicity 1
 O         0.146411         0.054170         0.766779
 C        -0.630887         1.189380         0.835216
 C        -2.074368         1.261151         0.477232
 C        -1.603759         1.733184         1.829660
 C        -1.072076         3.168465         1.562409
 O        -0.529940         3.948771         2.592729
 C         0.654684         3.293611         2.818553
 C         1.235949         2.920270         1.373376
 C         0.015115         2.570799         0.575745
 H        -0.176829        -0.666249         1.358538
 H        -2.474575         1.917428        -0.247253
 H        -2.499952         0.204146         0.470054
 H        -2.089039         1.404537         2.731831
 H        -1.978247         3.792120         1.158505
 H         1.209168         3.855338         3.695402
 H         0.403421         2.378096         3.386203
 H         1.789312         3.826331         0.941587
 H         1.881330         2.036234         1.311193
 H         0.036817         3.034198        -0.427851
