19
Iteration:   750charge 0 multiplicity 1
 O         0.021209         0.001348         1.111171
 C        -0.667844         1.180888         0.831805
 C        -2.075657         1.126404         0.370631
 C        -1.843589         1.817028         1.663775
 C        -1.089878         3.266253         1.545013
 O        -0.498774         3.761371         2.748631
 C         0.842868         3.329684         2.809456
 C         1.359169         3.041610         1.250074
 C         0.023530         2.622989         0.558183
 H         0.129258        -0.359171         0.176497
 H        -2.408711         1.697278        -0.580911
 H        -2.493070         0.098023         0.491094
 H        -2.183323         1.458103         2.597420
 H        -1.811606         3.994644         1.109775
 H         1.299608         4.234332         3.073811
 H         0.961137         2.464329         3.478852
 H         1.710304         3.951478         0.629979
 H         2.017266         2.199561         1.254060
 H         0.087917         2.901565        -0.511855
