19
Iteration:  4361
 O         0.078658         0.003944         0.838182
 C        -0.580787         1.212919         0.725881
 C        -2.031562         1.179954         0.427931
 C        -1.719512         1.829755         1.731546
 C        -1.172655         3.226959         1.497684
 O        -0.540881         3.724109         2.716694
 C         0.740132         3.299371         2.846719
 C         1.245711         2.961742         1.431691
 C        -0.007658         2.688017         0.573720
 H         0.782038         0.290278         1.527888
 H        -2.486075         1.813795        -0.326361
 H        -2.460266         0.059836         0.436542
 H        -1.973290         1.518597         2.686410
 H        -1.827746         3.971098         1.085197
 H         1.316137         4.007373         3.434344
 H         0.816208         2.400337         3.406610
 H         1.711465         3.732781         0.977541
 H         1.957646         2.121599         1.301228
 H         0.122006         3.109563        -0.428001
