19
Iteration:  4010charge 0 multiplicity 1
 O         0.113717         0.053283         0.827644
 C        -0.621814         1.258547         0.754737
 C        -2.051322         1.246410         0.353616
 C        -1.687922         1.741790         1.833147
 C        -1.176702         3.180270         1.573978
 O        -0.513041         3.807857         2.597148
 C         0.776968         3.268041         2.821039
 C         1.241157         2.935667         1.415029
 C        -0.040128         2.645048         0.634675
 H         0.605280         0.244800         1.605839
 H        -2.489648         1.762027        -0.536602
 H        -2.577252         0.163814         0.472106
 H        -2.112189         1.028170         2.646011
 H        -1.923056         3.926753         1.314418
 H         1.399116         3.937243         3.306961
 H         0.675187         2.374780         3.484431
 H         1.838178         3.778022         0.982236
 H         1.987954         2.074245         1.490376
 H        -0.045502         3.087871        -0.399414
