19
Iteration:  3446charge 0 multiplicity 1
 O         0.090570         0.041010         0.823232
 C        -0.607773         1.245869         0.818777
 C        -2.114329         1.170957         0.404943
 C        -1.770568         1.779660         1.752481
 C        -1.104211         3.183931         1.529057
 O        -0.564941         3.787344         2.681542
 C         0.799071         3.289341         2.860114
 C         1.300378         2.992180         1.384145
 C        -0.016105         2.663343         0.599109
 H         0.635914         0.223218         1.588782
 H        -2.593726         1.762769        -0.378452
 H        -2.466251         0.125092         0.106148
 H        -2.245323         1.371942         2.749620
 H        -1.650419         3.886888         0.976712
 H         1.483116         3.977243         3.318144
 H         0.777734         2.332134         3.424822
 H         1.984617         3.680508         0.915820
 H         2.033660         2.084058         1.367663
 H         0.039157         2.864352        -0.524526
