19
Iteration:   285charge 0 multiplicity 1
 O         0.133529         0.020932         1.078441
 C        -0.676653         1.219952         0.735995
 C        -2.097841         1.192135         0.415486
 C        -1.646896         1.794240         1.773576
 C        -1.156800         3.220084         1.523695
 O        -0.496592         3.937097         2.581482
 C         0.798371         3.257120         2.818812
 C         1.214216         2.906085         1.387964
 C        -0.041553         2.591301         0.529825
 H         0.491560        -0.217201         0.229227
 H        -2.500620         1.794122        -0.391000
 H        -2.628610         0.216369         0.503582
 H        -2.073072         1.198448         2.725483
 H        -1.966615         3.876237         1.138967
 H         1.444656         4.014454         3.415295
 H         0.589677         2.320705         3.339183
 H         1.882281         3.616680         1.006958
 H         1.935683         2.105653         1.564695
 H         0.172301         3.044622        -0.504807
