19
Iteration:  4132charge 0 multiplicity 1
 O         0.124356         0.070533         0.869297
 C        -0.572556         1.231560         0.854043
 C        -2.009610         1.210132         0.318657
 C        -1.711568         1.852746         1.746551
 C        -1.260104         3.222860         1.584317
 O        -0.540357         3.747388         2.710455
 C         0.792657         3.251705         2.761065
 C         1.263136         2.919978         1.318713
 C        -0.042560         2.611485         0.644198
 H         0.684009         0.073075         1.666927
 H        -2.209926         1.940594        -0.474495
 H        -2.604716         0.396891         0.436201
 H        -2.295907         1.328044         2.632628
 H        -1.987208         3.795788         1.093310
 H         1.300065         3.847827         3.423801
 H         0.761465         2.261181         3.213359
 H         1.698892         3.821731         0.789921
 H         2.062816         2.182155         1.268916
 H        -0.014981         3.122198        -0.253142
