19
Iteration:  1291charge 0 multiplicity 1
 O         0.195065         0.132368         1.078870
 C        -0.641726         1.296072         0.809303
 C        -2.074980         1.048097         0.479966
 C        -1.751776         1.858386         1.658044
 C        -1.176130         3.355748         1.504100
 O        -0.507239         3.807165         2.714045
 C         0.697803         3.022323         2.750751
 C         1.298547         2.963027         1.279933
 C         0.018683         2.713497         0.525943
 H        -0.163670        -0.639429         0.605036
 H        -2.569586         1.412355        -0.459435
 H        -2.297420        -0.065878         0.755326
 H        -2.129428         1.614563         2.712917
 H        -1.840032         4.165517         1.140685
 H         1.440044         3.557876         3.368333
 H         0.572826         2.081432         3.278222
 H         1.667263         3.919594         0.989974
 H         2.156899         2.256982         1.197546
 H        -0.030254         3.052252        -0.559141
