19
Iteration:  4838
 O         0.050730         0.036728         0.859832
 C        -0.611715         1.230958         0.782543
 C        -1.985998         1.184392         0.364007
 C        -1.692932         1.791003         1.767828
 C        -1.189340         3.252239         1.516092
 O        -0.545883         3.792606         2.671820
 C         0.763571         3.190979         2.840023
 C         1.256490         2.983555         1.402895
 C        -0.000844         2.659786         0.610868
 H         0.761202         0.027907         1.486862
 H        -2.372244         1.801846        -0.470444
 H        -2.498766         0.261174         0.355212
 H        -2.259572         1.249427         2.611320
 H        -1.837724         4.003401         1.076254
 H         1.282184         3.876647         3.417790
 H         0.642330         2.232069         3.422451
 H         1.714993         3.879280         0.964120
 H         2.064280         2.301967         1.362511
 H         0.202883         3.044640        -0.340932
