19
Iteration:  2508charge 0 multiplicity 1
 O         0.128551         0.057642         1.079083
 C        -0.598672         1.254231         0.876898
 C        -2.038760         1.198730         0.438180
 C        -1.810093         1.835406         1.740686
 C        -1.148654         3.256302         1.486376
 O        -0.520803         3.645947         2.694827
 C         0.867100         3.208238         2.729446
 C         1.220804         3.093398         1.240698
 C        -0.042940         2.630795         0.609390
 H        -0.059065        -0.809447         0.623496
 H        -2.193204         1.909090        -0.406106
 H        -2.621180         0.118468         0.378391
 H        -2.584763         1.611390         2.449895
 H        -1.695744         3.952739         0.918235
 H         1.497508         3.978510         3.290637
 H         1.013599         2.306208         3.224057
 H         1.510786         4.117035         0.914192
 H         2.145973         2.520108         1.066551
 H         0.130038         2.775463        -0.482328
