19
Iteration:  2811charge 0 multiplicity 1
 O         0.195861         0.141955         0.935388
 C        -0.711303         1.200924         0.863706
 C        -2.094385         1.226358         0.375826
 C        -1.690320         1.823573         1.759671
 C        -1.168635         3.196918         1.489160
 O        -0.537348         3.696401         2.587760
 C         0.760593         3.224945         2.835235
 C         1.269768         2.894945         1.326426
 C        -0.012483         2.689022         0.648006
 H         0.722126        -0.006206         1.798371
 H        -2.514614         2.081723        -0.295913
 H        -2.620140         0.219000         0.332129
 H        -2.196468         1.361407         2.590569
 H        -1.843289         4.084928         1.211213
 H         1.430711         4.118625         3.221355
 H         0.711624         2.309485         3.495560
 H         1.830566         3.866226         0.927041
 H         1.923467         2.016554         1.017820
 H         0.032770         2.915088        -0.442151
