19
Iteration:  2640
 O         0.147382         0.042695         0.778948
 C        -0.645748         1.180059         0.823005
 C        -2.092407         1.263746         0.462512
 C        -1.571656         1.741041         1.849934
 C        -1.086451         3.192197         1.536939
 O        -0.529527         3.911950         2.587347
 C         0.669015         3.311844         2.831735
 C         1.253568         2.938765         1.359112
 C         0.012405         2.582872         0.588158
 H        -0.074922        -0.645063         1.404739
 H        -2.516674         2.010841        -0.222509
 H        -2.601157         0.310129         0.461932
 H        -2.136174         1.228900         2.696885
 H        -1.905530         3.722498         1.183464
 H         1.124042         3.895418         3.623956
 H         0.354056         2.337803         3.440147
 H         1.763542         3.788973         1.009292
 H         1.858831         2.043362         1.351803
 H         0.045771         2.978134        -0.431409
