19
Iteration:  3051charge 0 multiplicity 1
 O         0.071873         0.068646         0.935894
 C        -0.636689         1.214479         0.840412
 C        -1.974958         1.284753         0.370868
 C        -1.768722         1.757243         1.759290
 C        -1.132161         3.203287         1.529790
 O        -0.591019         3.653025         2.730005
 C         0.828665         3.321123         2.718007
 C         1.338092         2.996729         1.294739
 C        -0.046506         2.618309         0.637290
 H         0.316538        -0.059813         1.903606
 H        -2.372314         1.939880        -0.504696
 H        -2.633893         0.336556         0.382904
 H        -2.553375         1.369932         2.439426
 H        -1.741003         4.052205         1.031910
 H         1.418601         4.133626         3.204612
 H         0.971148         2.349533         3.295786
 H         1.749389         3.881072         0.745458
 H         2.095779         2.203666         1.286763
 H         0.013429         2.953184        -0.436490
