19
Iteration:  3543
 O         0.092516        -0.010896         0.811055
 C        -0.578101         1.210265         0.762093
 C        -2.044055         1.211619         0.466015
 C        -1.603916         1.843369         1.807546
 C        -1.191177         3.253897         1.535388
 O        -0.614746         3.835572         2.651800
 C         0.749392         3.153442         2.782542
 C         1.268601         3.010915         1.396027
 C         0.001029         2.602621         0.615066
 H         0.501761        -0.074152         1.716683
 H        -2.431037         1.793314        -0.393515
 H        -2.602690         0.234498         0.486195
 H        -2.171105         1.443008         2.696907
 H        -1.712791         4.060636         1.048160
 H         1.278465         3.910184         3.320367
 H         0.679261         2.180173         3.276881
 H         1.716594         3.893733         0.924821
 H         2.051930         2.226990         1.256582
 H         0.073735         3.164752        -0.314224
