19
Iteration:  3965charge 0 multiplicity 1
 O         0.075342         0.027227         0.802878
 C        -0.617904         1.196329         0.845415
 C        -2.059546         1.182508         0.389997
 C        -1.790169         1.863486         1.695904
 C        -1.194139         3.140933         1.568879
 O        -0.517904         3.706672         2.691862
 C         0.830887         3.360801         2.800564
 C         1.303118         3.016365         1.407372
 C        -0.012755         2.633962         0.637197
 H         0.804001         0.044157         1.383046
 H        -2.451281         1.805054        -0.506343
 H        -2.484961         0.042293         0.507915
 H        -2.328888         1.608390         2.560629
 H        -1.783014         4.018055         1.263883
 H         1.215061         4.161272         3.414120
 H         0.972847         2.413653         3.367369
 H         1.752645         3.784262         0.794680
 H         2.075221         2.157368         1.370608
 H         0.043343         2.949587        -0.412591
