19
Iteration:  1603charge 0 multiplicity 1
 O         0.167424         0.120396         1.106085
 C        -0.709372         1.235073         0.799507
 C        -2.158060         1.095930         0.359540
 C        -1.721565         1.804312         1.665978
 C        -1.123286         3.244573         1.466677
 O        -0.499290         3.809311         2.656189
 C         0.854559         3.158849         2.794327
 C         1.245032         2.979810         1.343139
 C        -0.025144         2.682087         0.620830
 H         0.731367        -0.048644         0.388447
 H        -2.798979         1.556535        -0.484428
 H        -2.422753         0.103242         0.674041
 H        -2.224563         1.432793         2.582224
 H        -1.814179         3.991007         1.219157
 H         1.369662         3.973936         3.405022
 H         0.731462         2.140871         3.430086
 H         1.804932         3.763222         0.888488
 H         1.955061         2.185836         1.283474
 H        -0.114383         3.085888        -0.370659
