19
Iteration:  3178charge 0 multiplicity 1
 O         0.080185         0.054302         0.785421
 C        -0.593139         1.269778         0.789244
 C        -2.070351         1.111951         0.427689
 C        -1.695982         1.814413         1.803539
 C        -1.174074         3.208534         1.522608
 O        -0.607343         3.850891         2.598861
 C         0.759869         3.266342         2.854580
 C         1.323154         2.849895         1.444845
 C         0.008415         2.695256         0.615029
 H         0.730426        -0.073755         1.524023
 H        -2.469469         1.762147        -0.392310
 H        -2.562180         0.175724         0.562798
 H        -2.195834         1.344523         2.713913
 H        -1.839852         3.900546         1.091443
 H         1.486612         4.054615         3.278813
 H         0.925870         2.318288         3.448393
 H         1.809904         3.870089         1.193009
 H         1.980718         2.016330         1.199139
 H         0.119072         3.020198        -0.459611
