19
Iteration:  4917
 O         0.082097         0.061338         0.894454
 C        -0.616777         1.250013         0.761820
 C        -1.960242         1.224309         0.343418
 C        -1.722337         1.734129         1.682964
 C        -1.212002         3.230559         1.599625
 O        -0.529160         3.811710         2.678804
 C         0.778505         3.208804         2.760592
 C         1.322389         2.918885         1.419074
 C        -0.077442         2.690597         0.604574
 H         0.429954        -0.008748         1.753633
 H        -2.351653         1.903509        -0.427853
 H        -2.401306         0.105906         0.248234
 H        -2.014850         1.158356         2.714442
 H        -1.959477         3.998385         1.283330
 H         1.271101         3.977836         3.318846
 H         0.622836         2.421906         3.522634
 H         1.837095         3.771849         1.026770
 H         1.889803         2.036436         1.490665
 H        -0.063889         3.043431        -0.369107
