19
Iteration:  3896
 O         0.139915         0.043876         0.921937
 C        -0.590133         1.304473         0.840270
 C        -2.052477         1.178172         0.395443
 C        -1.675987         1.840296         1.740219
 C        -1.202758         3.274714         1.556005
 O        -0.497023         3.765574         2.655676
 C         0.700215         3.067019         2.767376
 C         1.232879         2.983595         1.300131
 C        -0.055556         2.674187         0.611513
 H         0.703200        -0.062502         1.734035
 H        -2.302078         2.058604        -0.403119
 H        -2.332402         0.182394         0.242141
 H        -1.832578         1.543894         2.793916
 H        -2.009748         3.976913         1.182336
 H         1.390248         3.691861         3.446297
 H         0.550732         2.108298         3.232491
 H         1.692883         3.913457         0.946801
 H         1.965436         2.192837         1.206972
 H        -0.136129         3.036173        -0.352829
