19
Iteration:   209
 O         0.111370         0.134425         1.143150
 C        -0.654317         1.194045         0.867849
 C        -1.921788         1.201932         0.249762
 C        -1.763601         1.824784         1.719985
 C        -1.170860         3.225341         1.530896
 O        -0.446203         3.798400         2.693121
 C         0.864940         3.240587         2.742822
 C         1.179404         2.984586         1.293817
 C        -0.115919         2.541327         0.586619
 H        -0.382601        -0.757393         1.032524
 H        -2.213763         1.809450        -0.583957
 H        -2.535738         0.231945         0.186061
 H        -2.502478         1.459225         2.594924
 H        -1.892101         4.028130         1.293002
 H         1.513349         3.958154         3.324852
 H         0.947526         2.286439         3.346985
 H         1.508084         3.989451         0.882913
 H         2.029852         2.309676         0.964197
 H         0.128927         2.677528        -0.506169
