19
Iteration:  4422
 O         0.190196         0.080122         0.881452
 C        -0.623124         1.254799         0.912016
 C        -1.963281         1.224290         0.392467
 C        -1.732496         1.817762         1.715557
 C        -1.238542         3.180547         1.476295
 O        -0.494514         3.814537         2.692046
 C         0.750921         3.107736         2.814599
 C         1.237243         2.924962         1.299156
 C        -0.091917         2.686231         0.582602
 H         0.808510        -0.033080         1.666905
 H        -2.218082         1.859794        -0.468856
 H        -2.541020         0.427923         0.469893
 H        -2.202742         1.476910         2.662796
 H        -2.074849         3.893101         1.161774
 H         1.237679         3.728411         3.580570
 H         0.371469         2.151011         3.296963
 H         1.598699         4.058022         1.185915
 H         2.072967         2.177412         1.225900
 H         0.006064         3.052835        -0.469856
