19
Iteration:  2849
 O         0.027690        -0.072387         0.807610
 C        -0.629445         1.197346         0.829821
 C        -2.033713         1.105940         0.308481
 C        -1.682809         1.780531         1.700924
 C        -1.095575         3.280209         1.600058
 O        -0.528414         3.865893         2.695492
 C         0.811936         3.368484         2.861896
 C         1.288279         2.972062         1.374971
 C        -0.083039         2.623153         0.652672
 H         0.849368         0.203276         1.305222
 H        -2.471674         1.635824        -0.443907
 H        -2.494569         0.099874         0.536087
 H        -2.311574         1.374514         2.522060
 H        -1.814712         3.985282         1.125634
 H         1.367122         4.170074         3.305193
 H         0.729906         2.497726         3.516329
 H         1.746098         3.787080         0.897635
 H         1.912346         2.080499         1.400229
 H        -0.158085         2.998090        -0.357204
