19
Iteration:  3088
 O         0.095684         0.085636         0.920417
 C        -0.648333         1.209933         0.708136
 C        -2.037895         1.147883         0.354121
 C        -1.771522         1.866689         1.733224
 C        -1.128663         3.229102         1.514324
 O        -0.500743         3.783583         2.766104
 C         0.815645         3.299373         2.785518
 C         1.247474         2.890804         1.394905
 C        -0.090097         2.595748         0.621160
 H         1.044358         0.259462         1.214089
 H        -2.403831         1.622112        -0.505893
 H        -2.376011         0.100159         0.642461
 H        -2.446801         1.424140         2.462190
 H        -1.676825         3.917715         1.048676
 H         1.392032         4.113079         3.226275
 H         0.884557         2.476011         3.578941
 H         1.707392         3.700571         0.884859
 H         1.979801         2.057068         1.302513
 H        -0.016541         3.011011        -0.367355
