19
Iteration:  1028charge 0 multiplicity 1
 O         0.231277         0.134099         1.111281
 C        -0.641780         1.209065         0.884670
 C        -2.060882         1.256678         0.356443
 C        -1.748258         1.861997         1.705302
 C        -1.145890         3.235450         1.515181
 O        -0.521149         3.735687         2.689837
 C         0.828251         3.195087         2.796818
 C         1.237180         2.944050         1.271220
 C        -0.085306         2.580669         0.530429
 H        -0.149999        -0.542575         0.582666
 H        -2.365661         1.876797        -0.538559
 H        -2.686458         0.386751         0.496961
 H        -2.384251         1.460944         2.532782
 H        -1.843055         3.971930         1.087616
 H         1.383240         4.050473         3.208688
 H         1.096077         2.244978         3.330051
 H         1.588725         3.805167         0.733359
 H         1.879125         1.987835         1.309469
 H        -0.218746         2.912110        -0.463730
