19
Iteration:  3461
 O         0.123301         0.050031         0.819872
 C        -0.645054         1.253884         0.795721
 C        -2.067276         1.182391         0.445552
 C        -1.716945         1.854782         1.699817
 C        -1.179376         3.231025         1.487810
 O        -0.560642         3.733815         2.676263
 C         0.771243         3.260173         2.782702
 C         1.276944         2.877373         1.428993
 C         0.005901         2.638823         0.625932
 H         1.011814        -0.000203         1.299188
 H        -2.535999         1.687505        -0.405935
 H        -2.470562         0.326933         0.874871
 H        -2.037778         1.591326         2.618785
 H        -1.902765         4.093548         1.241656
 H         1.264850         4.098917         3.318519
 H         0.847600         2.506644         3.599477
 H         1.706343         3.797352         1.002293
 H         1.951666         2.072484         1.435685
 H         0.064395         3.159895        -0.324376
