19
Iteration:   483charge 0 multiplicity 1
 O         0.153008         0.138972         1.127951
 C        -0.674473         1.234463         0.861925
 C        -2.064331         1.186496         0.415659
 C        -1.738187         1.838978         1.778306
 C        -1.155043         3.256926         1.497401
 O        -0.481331         3.796564         2.579995
 C         0.744888         3.118566         2.761148
 C         1.261054         2.956951         1.326893
 C        -0.040557         2.594646         0.529827
 H         0.776379         0.066322         0.323991
 H        -2.389076         1.906370        -0.328802
 H        -2.437183         0.184023         0.388847
 H        -2.219259         1.374963         2.586923
 H        -1.865234         4.017412         1.114631
 H         1.415311         3.683756         3.440769
 H         0.627406         2.134973         3.250429
 H         1.699135         3.826954         0.947961
 H         1.939580         2.087285         1.244263
 H        -0.042340         2.972260        -0.534550
