19
Iteration:  3946
 O         0.071793         0.032716         0.858777
 C        -0.691503         1.245350         0.838292
 C        -2.067026         1.190709         0.317718
 C        -1.812526         1.672858         1.759945
 C        -1.104524         3.260409         1.499707
 O        -0.537346         3.759559         2.722609
 C         0.877731         3.277568         2.830655
 C         1.268618         3.007545         1.370943
 C        -0.008078         2.655252         0.613403
 H         0.696775         0.074522         1.550758
 H        -2.348256         1.842886        -0.380645
 H        -2.397960         0.146024         0.390899
 H        -2.196016         1.267125         2.775893
 H        -1.758442         3.900677         0.954943
 H         1.510197         4.043311         3.222543
 H         0.849552         2.447216         3.613924
 H         1.549243         4.041942         0.972952
 H         2.179203         2.405702         1.176307
 H         0.057505         2.897255        -0.543264
