19
Iteration:  3847charge 0 multiplicity 1
 O         0.166180         0.115428         0.914839
 C        -0.646546         1.274618         0.788273
 C        -2.013999         1.183380         0.423474
 C        -1.774251         1.894498         1.739043
 C        -1.214980         3.264406         1.473419
 O        -0.517026         3.736735         2.724788
 C         0.815476         3.140042         2.789405
 C         1.223578         2.935855         1.387505
 C        -0.074569         2.625201         0.569833
 H         1.059878         0.328094         1.181369
 H        -2.461868         1.618513        -0.352831
 H        -2.487261         0.185996         0.728868
 H        -2.158066         1.254403         2.550093
 H        -1.902389         3.988127         1.070271
 H         1.400684         3.778865         3.381124
 H         0.717236         2.108910         3.213224
 H         1.825476         3.782430         1.000109
 H         1.901912         2.057596         1.278213
 H         0.188785         2.914090        -0.529067
