19
Iteration:  4700
 O         0.096639        -0.015263         0.915122
 C        -0.622723         1.242014         0.866253
 C        -1.981543         1.227387         0.312866
 C        -1.754154         1.826198         1.707931
 C        -1.179256         3.211300         1.630160
 O        -0.562773         3.779881         2.705299
 C         0.772449         3.235540         2.825315
 C         1.218618         2.990198         1.314238
 C         0.025039         2.628039         0.577167
 H         1.051019        -0.078118         1.299845
 H        -2.252956         1.986029        -0.453720
 H        -2.498158         0.394115         0.102669
 H        -2.396148         1.363496         2.569107
 H        -1.795813         3.988982         1.164144
 H         1.404843         3.871438         3.364202
 H         0.670511         2.264717         3.354481
 H         1.586289         3.874654         0.889062
 H         2.105239         2.319835         1.356238
 H         0.088631         2.912997        -0.570254
