19
Iteration:  4798
 O         0.204079         0.175770         0.864112
 C        -0.641909         1.236210         0.790869
 C        -2.007496         1.214790         0.382079
 C        -1.654814         1.780954         1.736920
 C        -1.188934         3.225851         1.538859
 O        -0.561147         3.853804         2.622981
 C         0.753283         3.119821         2.810624
 C         1.233040         2.843465         1.430328
 C        -0.046639         2.647911         0.608882
 H         0.339971         0.075124         1.866544
 H        -2.389449         1.929750        -0.362969
 H        -2.596549         0.209707         0.318422
 H        -2.160825         1.643446         2.737125
 H        -1.998557         3.945118         1.229736
 H         1.320145         3.603804         3.607055
 H         0.550089         2.102579         3.223260
 H         1.551771         3.772997         1.025401
 H         1.797834         1.920674         1.259916
 H         0.197877         2.964816        -0.482503
