19
Iteration:  2909
 O         0.114496        -0.049699         0.784033
 C        -0.554575         1.227517         0.766988
 C        -2.004219         1.209496         0.511906
 C        -1.666331         1.778681         1.790782
 C        -1.195418         3.278265         1.551170
 O        -0.566644         3.902997         2.613422
 C         0.708294         3.190585         2.814110
 C         1.205330         2.949288         1.399473
 C         0.005969         2.638970         0.564607
 H         0.590865        -0.193595         1.654754
 H        -2.458728         2.080226        -0.167588
 H        -2.603560         0.370986         0.415149
 H        -2.055595         1.625568         2.758064
 H        -1.966938         3.894222         1.188227
 H         1.346019         3.860714         3.470425
 H         0.723227         2.231815         3.349174
 H         1.905143         3.804178         1.134626
 H         1.885314         2.091119         1.391422
 H         0.130004         2.772356        -0.546673
