19
Iteration:  2841
 O         0.040575        -0.001807         0.840837
 C        -0.643748         1.169957         0.773502
 C        -1.978000         1.128868         0.354094
 C        -1.712780         1.828046         1.723816
 C        -1.125337         3.188787         1.559514
 O        -0.527707         3.851050         2.748360
 C         0.789067         3.384863         2.781770
 C         1.203400         2.960999         1.371089
 C        -0.015460         2.624956         0.658430
 H         0.839886         0.159735         1.382405
 H        -2.392024         1.835658        -0.443190
 H        -2.514436         0.048075         0.452514
 H        -2.311755         1.425120         2.553756
 H        -1.767615         3.928510         1.206586
 H         1.513530         3.925055         3.378417
 H         0.725943         2.493933         3.511248
 H         1.907370         3.571301         0.747022
 H         1.813572         2.053119         1.331799
 H         0.021024         2.998540        -0.409562
