19
Iteration:  1117
 O         0.294092         0.115708         0.912137
 C        -0.643352         1.257898         0.824667
 C        -2.118324         1.166100         0.411241
 C        -1.757241         1.797056         1.791323
 C        -1.213062         3.279101         1.517155
 O        -0.471134         3.827324         2.570580
 C         0.783673         3.181687         2.760758
 C         1.248093         2.886390         1.395884
 C        -0.049458         2.638553         0.619778
 H        -0.213030        -0.688763         1.086325
 H        -2.491301         1.870506        -0.232651
 H        -2.740822         0.195828         0.555803
 H        -2.118821         1.368711         2.684022
 H        -1.860347         4.059962         1.216992
 H         1.202142         4.001182         3.363968
 H         0.596413         2.295970         3.339524
 H         1.712863         3.726283         0.959422
 H         1.901224         1.996731         1.563478
 H         0.104366         3.073476        -0.310508
