19
Iteration:  2828charge 0 multiplicity 1
 O         0.125139         0.051273         0.888199
 C        -0.570009         1.251431         0.808020
 C        -2.043135         1.259591         0.383689
 C        -1.786190         1.776918         1.764753
 C        -1.216740         3.183906         1.520083
 O        -0.549891         3.808810         2.728451
 C         0.815357         3.289702         2.769241
 C         1.273490         2.884631         1.377629
 C        -0.044498         2.610178         0.551637
 H         0.813523         0.102119         1.613964
 H        -2.288428         1.812895        -0.478693
 H        -2.539990         0.206191         0.358127
 H        -2.155124         1.456395         2.763736
 H        -1.909743         3.901385         1.081099
 H         1.361472         4.106360         3.102363
 H         0.899828         2.344954         3.380917
 H         1.766187         3.703268         0.949000
 H         1.900781         2.026342         1.553838
 H         0.055743         2.965959        -0.487148
