19
Iteration:   806
 O         0.116463         0.078205         1.120850
 C        -0.679790         1.232934         0.829503
 C        -2.042318         1.250503         0.310404
 C        -1.763154         1.763307         1.694711
 C        -1.156135         3.195743         1.574516
 O        -0.527042         3.786994         2.679923
 C         0.885643         3.271121         2.692151
 C         1.304175         2.988920         1.281455
 C        -0.046709         2.610250         0.649147
 H        -0.374645        -0.680321         0.907455
 H        -2.406072         1.891856        -0.521777
 H        -2.543038         0.170476         0.379142
 H        -2.177040         1.545409         2.555917
 H        -1.998533         3.812937         1.202556
 H         1.425670         3.962137         3.298167
 H         0.920955         2.361667         3.337422
 H         1.907821         3.745602         0.659203
 H         1.994158         2.135607         1.201618
 H         0.054909         2.926966        -0.399164
