19
Iteration:  4580charge 0 multiplicity 1
 O         0.118612         0.001214         0.796272
 C        -0.615533         1.229075         0.820512
 C        -2.023366         1.172983         0.407245
 C        -1.738500         1.847109         1.821084
 C        -1.210836         3.244127         1.456581
 O        -0.563562         3.810927         2.646335
 C         0.777501         3.206956         2.886480
 C         1.296374         2.956447         1.485811
 C        -0.042287         2.621833         0.530894
 H         0.945047         0.278765         1.163818
 H        -2.399264         1.714035        -0.423486
 H        -2.391390         0.227436         0.511146
 H        -2.289723         1.487311         2.762728
 H        -1.814540         3.994207         0.965509
 H         1.221081         3.956404         3.428933
 H         0.738085         2.212645         3.384343
 H         1.611626         3.952250         1.215522
 H         2.240608         2.233809         1.258749
 H         0.183639         3.065798        -0.450440
