19
Iteration:  1227
 O         0.146311         0.030040         0.977310
 C        -0.578115         1.140916         0.839661
 C        -2.102825         1.207514         0.411383
 C        -1.730162         1.805016         1.751048
 C        -1.155791         3.210267         1.545123
 O        -0.456589         3.890935         2.631762
 C         0.729221         3.261437         2.765520
 C         1.243789         2.921319         1.352036
 C        -0.072916         2.653884         0.626887
 H         0.680278         0.017426         0.095318
 H        -2.445804         1.784648        -0.457615
 H        -2.656078         0.201128         0.436883
 H        -2.298657         1.225012         2.569168
 H        -1.856774         3.937594         1.198943
 H         1.407415         4.063126         3.222597
 H         0.677510         2.314949         3.351138
 H         1.950224         3.649317         0.938609
 H         1.846160         2.004587         1.504490
 H        -0.084200         3.128854        -0.291499
