19
Iteration:    93
 O         0.138741         0.104525         0.975007
 C        -0.628404         1.211072         0.806157
 C        -2.056923         1.211910         0.465640
 C        -1.643830         1.795212         1.774650
 C        -1.165777         3.186715         1.416599
 O        -0.541970         3.898703         2.586225
 C         0.792934         3.270251         2.810349
 C         1.242128         2.865530         1.488534
 C        -0.047994         2.561571         0.570246
 H         0.002417        -0.483661         0.158366
 H        -2.388520         1.899786        -0.331736
 H        -2.667560         0.236425         0.360520
 H        -1.991444         1.450722         2.810886
 H        -1.948377         3.878665         0.962705
 H         1.376339         4.046294         3.280157
 H         0.620633         2.526997         3.618548
 H         1.617361         3.846895         0.982694
 H         1.994263         2.001604         1.553808
 H         0.186560         2.786145        -0.551344
