19
Iteration:  1822charge 0 multiplicity 1
 O         0.158373         0.069914         1.056108
 C        -0.595608         1.262195         0.830347
 C        -2.032722         1.200775         0.369933
 C        -1.660069         1.775434         1.726634
 C        -1.219218         3.252476         1.581345
 O        -0.423938         3.871943         2.574151
 C         0.698292         3.098027         2.872937
 C         1.232977         3.005483         1.321374
 C        -0.068910         2.616210         0.527994
 H        -0.140394        -0.634527         0.411617
 H        -2.353316         1.942441        -0.389695
 H        -2.454143         0.074740         0.500740
 H        -2.183276         1.348368         2.642557
 H        -2.012077         3.905512         1.251162
 H         1.276550         3.686589         3.593395
 H         0.595239         2.077380         3.205689
 H         1.399307         4.165967         1.261235
 H         2.126939         2.390712         1.006943
 H        -0.001199         2.915891        -0.523938
