19
Iteration:   646
 O         0.179596         0.108421         0.959105
 C        -0.631815         1.212032         0.766675
 C        -2.138500         1.111978         0.516491
 C        -1.619282         1.851430         1.710760
 C        -1.117619         3.315765         1.489546
 O        -0.533593         3.852230         2.624898
 C         0.717199         3.205361         2.798585
 C         1.233896         2.902063         1.408217
 C         0.014712         2.636760         0.526747
 H        -0.361925        -0.601947         0.720863
 H        -2.612625         1.490499        -0.282728
 H        -2.631092         0.130196         0.854975
 H        -1.884261         1.646395         2.719172
 H        -1.752683         4.042726         0.968427
 H         1.436058         3.714900         3.522982
 H         0.479516         2.349042         3.430530
 H         1.857084         3.631274         1.009865
 H         1.828367         1.932648         1.353959
 H         0.061433         2.943629        -0.442715
