19
Iteration:  1159charge 0 multiplicity 1
 O         0.130493        -0.025294         0.862036
 C        -0.642578         1.163718         0.821911
 C        -2.059607         1.239054         0.386041
 C        -1.678898         1.759703         1.755497
 C        -1.169036         3.224046         1.552760
 O        -0.559706         3.828034         2.671674
 C         0.831586         3.450321         2.791508
 C         1.284572         2.961622         1.437048
 C        -0.037854         2.558310         0.656628
 H        -0.337380        -0.663987         0.374488
 H        -2.246670         2.039858        -0.386447
 H        -2.730532         0.258190         0.438722
 H        -2.110072         1.402949         2.627100
 H        -1.902295         3.890268         1.051450
 H         1.436624         4.349516         2.979091
 H         0.896198         2.617814         3.470231
 H         1.776689         3.708759         0.880275
 H         1.989650         2.029942         1.441707
 H         0.012308         2.706203        -0.419968
