19
Iteration:  2313charge 0 multiplicity 1
 O         0.148612         0.052507         0.921800
 C        -0.698014         1.254228         0.792799
 C        -2.122996         1.176408         0.354897
 C        -1.712874         1.715667         1.745709
 C        -1.168944         3.149789         1.579609
 O        -0.547961         3.837999         2.595427
 C         0.902397         3.456056         2.860127
 C         1.289595         2.856143         1.432826
 C        -0.055786         2.688919         0.640568
 H         0.358730        -0.435060         0.094673
 H        -2.366485         1.760211        -0.461448
 H        -2.489704         0.131543         0.452222
 H        -1.989350         1.148104         2.583715
 H        -1.878194         3.908836         1.201258
 H         1.307006         4.342814         3.094285
 H         0.889056         2.624912         3.630679
 H         1.986548         3.491608         0.889251
 H         1.634528         1.819718         1.584291
 H        -0.011930         2.863461        -0.411882
