19
Iteration:  1915charge 0 multiplicity 1
 O         0.068196         0.023141         1.084456
 C        -0.583418         1.211152         0.821842
 C        -2.006325         1.213903         0.351776
 C        -1.742897         1.803586         1.682416
 C        -1.203233         3.199284         1.576973
 O        -0.518934         3.793349         2.691884
 C         0.852556         3.289811         2.773107
 C         1.236903         2.911349         1.321277
 C        -0.081268         2.727123         0.599358
 H         0.386473        -0.341336         0.235672
 H        -2.325890         1.842132        -0.590496
 H        -2.269268         0.216273         0.284610
 H        -2.056634         1.275108         2.648438
 H        -2.034793         3.929997         1.292369
 H         1.565092         4.124829         3.095769
 H         0.985088         2.270165         3.271707
 H         1.767680         3.673866         0.760353
 H         1.827627         1.934707         1.290671
 H        -0.053460         3.202261        -0.411094
