19
Iteration:   733charge 0 multiplicity 1
 O         0.001729         0.054169         1.144855
 C        -0.652505         1.262654         0.806302
 C        -2.093328         1.159565         0.314128
 C        -1.689207         1.752244         1.740885
 C        -1.201871         3.187799         1.540628
 O        -0.508321         3.803636         2.628561
 C         0.884988         3.299642         2.721224
 C         1.339337         2.970393         1.328937
 C        -0.025898         2.671305         0.613855
 H         0.450661        -0.327206         0.360656
 H        -2.483245         1.750533        -0.431995
 H        -2.519842         0.125597         0.451526
 H        -2.033381         1.334791         2.728057
 H        -1.884321         3.929561         1.104243
 H         1.517435         3.961618         3.405185
 H         0.781469         2.307996         3.215935
 H         1.866387         3.803718         0.955643
 H         2.079060         2.109748         1.277708
 H        -0.158612         3.102685        -0.418158
