19
Iteration:  3519charge 0 multiplicity 1
 O         0.134354         0.054925         0.809478
 C        -0.594425         1.224398         0.841785
 C        -2.035600         1.230188         0.393212
 C        -1.652748         1.735965         1.848986
 C        -1.204682         3.214410         1.534707
 O        -0.496703         3.934456         2.573911
 C         0.716043         3.111707         2.884904
 C         1.250248         2.972870         1.438340
 C        -0.067911         2.590446         0.492198
 H         0.609800         0.102348         1.612863
 H        -2.529721         1.878587        -0.305349
 H        -2.571911         0.214806         0.263873
 H        -2.114073         1.322323         2.856012
 H        -1.946482         4.079187         1.344924
 H         1.436015         3.785272         3.469389
 H         0.450330         2.148867         3.331888
 H         1.828492         3.830209         0.965756
 H         1.998406         2.253716         1.366423
 H        -0.040419         3.059832        -0.453112
