19
Iteration:   976
 O        -0.036246        -0.072381         1.012417
 C        -0.671737         1.144356         0.755417
 C        -2.080868         1.202090         0.336188
 C        -1.778598         1.777173         1.733903
 C        -1.101384         3.175729         1.543406
 O        -0.508539         3.761865         2.734034
 C         0.895076         3.476505         2.751859
 C         1.303880         3.018298         1.367790
 C         0.003473         2.620453         0.648692
 H         0.685120        -0.198392         0.345688
 H        -2.330130         1.776026        -0.489338
 H        -2.543734         0.186054         0.318948
 H        -2.245339         1.537596         2.706456
 H        -1.867498         3.859052         1.219327
 H         1.357296         4.476157         2.918324
 H         1.294911         2.735299         3.487830
 H         1.630569         3.854337         0.802046
 H         2.035449         2.191307         1.363963
 H         0.105998         3.030726        -0.445982
