19
Iteration:  2302
 O         0.094824         0.080485         0.952533
 C        -0.565548         1.236495         0.706490
 C        -2.054364         1.130995         0.395583
 C        -1.719471         1.750485         1.730113
 C        -1.196980         3.209982         1.562087
 O        -0.534847         3.795075         2.685724
 C         0.817066         3.441552         2.745345
 C         1.276074         2.840467         1.452506
 C        -0.061964         2.654674         0.643132
 H        -0.080122        -0.448173         0.197211
 H        -2.498102         1.710292        -0.363956
 H        -2.585702         0.163243         0.435196
 H        -1.926532         1.244824         2.642895
 H        -1.825614         3.908132         0.973663
 H         1.387523         4.229414         3.060510
 H         1.026897         2.776585         3.648268
 H         1.964540         3.530884         0.945570
 H         1.837163         1.885704         1.472472
 H         0.053716         3.280474        -0.234972
