19
Iteration:  2699
 O         0.080880         0.008707         0.912568
 C        -0.616914         1.225435         0.845996
 C        -2.038878         1.110352         0.362701
 C        -1.833031         1.897860         1.676953
 C        -1.219498         3.213089         1.557823
 O        -0.517986         3.788600         2.714735
 C         0.870264         3.301518         2.780688
 C         1.266815         2.897755         1.358941
 C        -0.036896         2.703250         0.653347
 H         1.034922         0.092195         1.023380
 H        -2.271359         1.609785        -0.646152
 H        -2.384034        -0.027205         0.326068
 H        -2.256596         1.578627         2.600363
 H        -2.001070         3.960971         1.294408
 H         1.604472         4.020903         3.186641
 H         0.888564         2.397185         3.417801
 H         1.812474         3.817592         0.917300
 H         2.044218         2.093685         1.239591
 H         0.062644         2.971569        -0.422885
