19
Iteration:  4887charge 0 multiplicity 1
 O         0.095746        -0.011696         0.846482
 C        -0.631895         1.136491         0.790899
 C        -2.029073         1.290610         0.329762
 C        -1.747756         1.815810         1.664235
 C        -1.115839         3.165925         1.590673
 O        -0.549769         3.775654         2.691182
 C         0.775595         3.287522         2.817393
 C         1.283283         3.013628         1.412942
 C        -0.052431         2.595174         0.653417
 H         0.713632        -0.018926         1.640113
 H        -2.406042         1.831924        -0.568302
 H        -2.617535         0.316025         0.353355
 H        -2.119303         1.473337         2.596808
 H        -1.777975         3.964018         1.141260
 H         1.352804         4.168900         3.334688
 H         0.792382         2.439036         3.548766
 H         1.586648         4.024950         1.065348
 H         2.207016         2.333393         1.367461
 H        -0.001554         3.037486        -0.392670
