19
Iteration:  1051charge 0 multiplicity 1
 O         0.232556         0.228286         1.042767
 C        -0.628372         1.248345         0.868387
 C        -2.043954         1.082816         0.405594
 C        -1.825478         1.887898         1.766556
 C        -1.187610         3.289097         1.501651
 O        -0.462204         3.827518         2.622719
 C         0.771635         3.041474         2.777284
 C         1.275229         2.928465         1.313658
 C        -0.047509         2.647457         0.566016
 H        -0.207852        -0.646049         0.858083
 H        -2.479462         1.631968        -0.389098
 H        -2.599143         0.077680         0.511966
 H        -2.392867         1.494194         2.572249
 H        -1.706284         4.089222         1.041045
 H         1.535854         3.501930         3.451497
 H         0.565852         1.968913         3.091246
 H         1.466763         3.917356         0.984456
 H         2.021548         2.083124         1.121251
 H        -0.034716         2.959472        -0.467750
