19
Iteration:  4084charge 0 multiplicity 1
 O         0.084411         0.098161         0.824078
 C        -0.600053         1.243229         0.795735
 C        -2.085834         1.162906         0.426235
 C        -1.727048         1.786250         1.757975
 C        -1.117344         3.238696         1.554848
 O        -0.500937         3.788778         2.650473
 C         0.705686         3.157130         2.800122
 C         1.295325         3.023404         1.413521
 C        -0.046913         2.618715         0.556124
 H         0.848462         0.508164         1.377432
 H        -2.498908         1.750247        -0.444051
 H        -2.404828         0.032798         0.676662
 H        -2.101801         1.446147         2.645774
 H        -1.935217         3.874963         1.123629
 H         1.225930         3.852698         3.568802
 H         0.635113         2.191325         3.372260
 H         1.905410         3.800473         1.144559
 H         2.032657         2.199604         1.545128
 H         0.119953         2.853277        -0.460615
