19
Iteration:  1323
 O         0.225567         0.141989         1.104867
 C        -0.586785         1.245884         0.871449
 C        -2.124405         1.235060         0.373711
 C        -1.781975         1.849817         1.738878
 C        -1.224201         3.249279         1.501654
 O        -0.523194         3.733524         2.656556
 C         0.820324         3.130069         2.753982
 C         1.287376         2.934902         1.254333
 C        -0.044662         2.606739         0.610583
 H         0.364682        -0.602960         0.438401
 H        -2.305630         1.880048        -0.484945
 H        -2.598170         0.204086         0.374862
 H        -2.366109         1.536405         2.658228
 H        -1.873876         4.104479         1.209524
 H         1.321646         3.922662         3.194889
 H         0.678520         2.273499         3.398509
 H         1.598341         3.894876         0.956853
 H         2.198129         2.307603         1.128457
 H        -0.146893         2.915126        -0.495968
