19
Iteration:  1071
 O         0.261756         0.188503         1.020615
 C        -0.600698         1.269698         0.841869
 C        -2.112069         1.151194         0.498883
 C        -1.711712         1.932047         1.736848
 C        -1.175365         3.257327         1.482891
 O        -0.458218         3.786261         2.581455
 C         0.664977         2.977801         2.745494
 C         1.251049         2.943393         1.336816
 C        -0.075295         2.716316         0.539662
 H        -0.153957        -0.622592         1.166723
 H        -2.493401         1.336136        -0.557966
 H        -2.280841         0.119860         0.760656
 H        -1.913587         1.705804         2.781208
 H        -1.883179         4.080024         1.257076
 H         1.339819         3.436598         3.459579
 H         0.239910         2.067368         3.105783
 H         1.755971         3.876948         1.263701
 H         1.864039         1.992870         1.203906
 H         0.038671         2.914722        -0.460303
