19
Iteration:  3988
 O         0.102114         0.002885         0.798905
 C        -0.588324         1.191635         0.842777
 C        -2.054033         1.199453         0.389630
 C        -1.696019         1.822587         1.725178
 C        -1.179864         3.236838         1.500591
 O        -0.592592         3.819448         2.804902
 C         0.801214         3.275950         2.814328
 C         1.236487         2.939455         1.354951
 C        -0.027622         2.614557         0.601203
 H         0.899232         0.057271         1.436006
 H        -2.348406         1.928647        -0.411137
 H        -2.537683         0.109914         0.240434
 H        -2.151523         1.373374         2.644264
 H        -1.697253         4.079605         1.102607
 H         1.378220         4.114673         3.038308
 H         0.996180         2.533764         3.614264
 H         1.839403         3.768419         0.926744
 H         1.922640         2.018246         1.277241
 H        -0.110694         2.953774        -0.466424
