19
Iteration:  2270
 O         0.207758         0.089332         0.942643
 C        -0.622669         1.182922         0.833639
 C        -2.078224         1.209892         0.431159
 C        -1.729925         1.810354         1.727359
 C        -1.180595         3.243762         1.478440
 O        -0.562353         3.692222         2.694561
 C         0.808801         3.366781         2.805087
 C         1.281522         2.942796         1.388978
 C        -0.018001         2.590755         0.561577
 H        -0.416908        -0.534744         0.443493
 H        -2.295430         1.847937        -0.364153
 H        -2.819711         0.393791         0.566756
 H        -2.013105         1.461048         2.705860
 H        -1.830324         4.059614         0.971059
 H         1.299434         4.324989         3.167286
 H         0.766341         2.463859         3.453670
 H         1.862424         3.709391         0.887926
 H         1.910634         2.001418         1.495642
 H        -0.061634         3.061858        -0.426520
