19
Iteration:  3957
 O         0.048651         0.058077         0.817128
 C        -0.597755         1.230666         0.848156
 C        -2.080625         1.160935         0.390204
 C        -1.800211         1.788830         1.700950
 C        -1.179066         3.152904         1.493182
 O        -0.505726         3.734602         2.704852
 C         0.852180         3.305127         2.860101
 C         1.306625         3.064503         1.369998
 C        -0.009463         2.592477         0.640681
 H         0.755421         0.109918         1.453257
 H        -2.417350         1.701098        -0.396177
 H        -2.590852         0.195116         0.298908
 H        -2.460620         1.493751         2.609858
 H        -1.832254         3.941625         1.176200
 H         1.404182         4.151961         3.178495
 H         1.034466         2.445623         3.597709
 H         1.854346         3.990092         0.996924
 H         1.990508         2.201096         1.365520
 H        -0.076118         2.999756        -0.468614
