19
Iteration:  4842
 O         0.029663         0.027279         0.837144
 C        -0.622616         1.276595         0.803135
 C        -1.962360         1.176576         0.380415
 C        -1.695664         1.797345         1.768311
 C        -1.164732         3.256107         1.502135
 O        -0.549722         3.769226         2.676368
 C         0.733151         3.187008         2.812896
 C         1.283621         3.005842         1.402352
 C         0.023681         2.638644         0.653006
 H         0.806048         0.093981         1.490477
 H        -2.270740         1.711424        -0.513277
 H        -2.654326         0.206535         0.385250
 H        -2.239103         1.156852         2.523588
 H        -1.780118         4.061259         0.999356
 H         1.322322         3.957449         3.401843
 H         0.657888         2.320306         3.505302
 H         1.610212         3.950020         0.977076
 H         2.050598         2.197075         1.376854
 H        -0.073384         3.005900        -0.426113
