19
Iteration:  3840
 O         0.132539         0.114893         0.913146
 C        -0.604656         1.299723         0.819352
 C        -2.016568         1.169858         0.424170
 C        -1.729115         1.876185         1.755966
 C        -1.180368         3.218386         1.550690
 O        -0.558361         3.752796         2.712414
 C         0.795668         3.128584         2.794719
 C         1.219464         2.909465         1.346105
 C        -0.007256         2.641944         0.519531
 H         0.993714         0.337560         1.182312
 H        -2.492744         1.699100        -0.517469
 H        -2.467579         0.177746         0.390941
 H        -2.395563         1.560801         2.669920
 H        -1.943480         3.955324         1.179698
 H         1.432637         3.858257         3.366795
 H         0.584487         2.222673         3.333281
 H         1.686291         3.721520         0.766925
 H         1.947081         2.122406         1.345737
 H        -0.006230         2.995258        -0.445119
