19
Iteration:  1922
 O         0.037398         0.040471         1.071640
 C        -0.608083         1.231536         0.836696
 C        -1.948360         1.219133         0.316845
 C        -1.685931         1.760894         1.731880
 C        -1.146541         3.203602         1.572901
 O        -0.531543         3.802186         2.648644
 C         0.848711         3.283027         2.858985
 C         1.199028         2.922879         1.237484
 C        -0.123635         2.688827         0.629632
 H         0.393991        -0.346040         0.304637
 H        -2.321001         1.996143        -0.383277
 H        -2.397360         0.201344         0.101570
 H        -1.980055         1.365540         2.642376
 H        -1.867693         3.889970         1.193313
 H         1.531155         3.994238         3.120176
 H         0.864516         2.345995         3.375720
 H         1.757072         3.762201         0.815449
 H         1.898526         2.023742         1.296491
 H        -0.147384         3.031349        -0.385896
