19
Iteration:  3960
 O         0.049106         0.054510         0.806245
 C        -0.590456         1.208411         0.851864
 C        -2.082416         1.154909         0.397287
 C        -1.787861         1.837548         1.689345
 C        -1.198546         3.122927         1.522236
 O        -0.504723         3.725470         2.697111
 C         0.839478         3.318230         2.837641
 C         1.310841         3.047550         1.386589
 C        -0.009901         2.603535         0.636830
 H         0.828486         0.099198         1.475171
 H        -2.458608         1.737363        -0.448438
 H        -2.509278         0.247571         0.344101
 H        -2.438776         1.544378         2.574381
 H        -1.804410         4.015820         1.250409
 H         1.343775         4.249632         3.321889
 H         1.032865         2.446682         3.491020
 H         1.844747         3.913948         0.914181
 H         1.970322         2.222521         1.367860
 H        -0.044887         2.982322        -0.403565
