19
Iteration:   149charge 0 multiplicity 1
 O         0.301718         0.230733         1.007676
 C        -0.675704         1.281420         0.905120
 C        -2.102450         1.124983         0.487256
 C        -1.768148         1.936323         1.741765
 C        -1.035654         3.273477         1.428309
 O        -0.537785         3.783943         2.587955
 C         0.683559         3.004071         2.798789
 C         1.220855         2.869288         1.346530
 C        -0.033400         2.653720         0.501480
 H        -0.100075        -0.560789         1.405388
 H        -2.513158         1.627686        -0.412353
 H        -2.523971         0.137828         0.769332
 H        -2.087742         1.575677         2.698277
 H        -1.783554         3.990672         1.009783
 H         1.264367         3.718881         3.391241
 H         0.366707         2.135058         3.381053
 H         1.722610         3.850197         1.009404
 H         2.132316         2.274605         1.158159
 H         0.090599         2.769533        -0.646925
