19
Iteration:  2908
 O         0.114607        -0.052268         0.781203
 C        -0.558029         1.226539         0.776160
 C        -2.005314         1.211548         0.514810
 C        -1.662946         1.778589         1.788742
 C        -1.196217         3.277645         1.546001
 O        -0.572730         3.903204         2.618980
 C         0.707638         3.195794         2.809985
 C         1.211030         2.948982         1.398659
 C         0.010573         2.637552         0.566101
 H         0.578496        -0.195240         1.639960
 H        -2.435924         2.085994        -0.188217
 H        -2.642438         0.388827         0.407122
 H        -2.033027         1.633593         2.760596
 H        -1.987635         3.862905         1.190738
 H         1.355767         3.846782         3.453736
 H         0.727143         2.222681         3.346250
 H         1.903016         3.807919         1.153044
 H         1.892237         2.105453         1.376684
 H         0.141390         2.770357        -0.552592
