19
Iteration:   614charge 0 multiplicity 1
 O         0.196809         0.140827         0.916138
 C        -0.614282         1.176910         0.937799
 C        -2.061627         1.309320         0.360843
 C        -1.696675         1.723865         1.800694
 C        -1.216533         3.188455         1.581239
 O        -0.516888         3.857987         2.512973
 C         0.805129         3.248728         2.783985
 C         1.239316         2.902663         1.380006
 C        -0.041597         2.550619         0.624483
 H        -0.419485        -0.653820         0.985717
 H        -2.186299         1.988700        -0.377055
 H        -2.761243         0.408019         0.347621
 H        -2.180311         1.531308         2.707672
 H        -1.809176         3.982688         1.086263
 H         1.429651         4.103514         3.153316
 H         0.633454         2.413397         3.469010
 H         1.696511         3.673797         0.868096
 H         1.979111         2.045137         1.419162
 H         0.033825         2.787481        -0.348987
