19
Iteration:   931charge 0 multiplicity 1
 O         0.076706         0.047498         0.934353
 C        -0.637855         1.240654         0.834541
 C        -2.037567         1.242640         0.426186
 C        -1.693006         1.756752         1.797923
 C        -1.174891         3.199820         1.581534
 O        -0.519639         3.845914         2.576568
 C         0.811698         3.367496         2.761909
 C         1.265713         2.869987         1.399690
 C        -0.033764         2.547137         0.627497
 H         0.119907        -0.362971         0.049405
 H        -2.316239         1.968154        -0.360733
 H        -2.441500         0.329662         0.359791
 H        -2.040295         1.335198         2.850256
 H        -1.784655         3.735726         0.921845
 H         1.526020         4.170497         3.075844
 H         0.705249         2.601578         3.550075
 H         1.698417         3.732043         0.997720
 H         2.035718         2.042366         1.514698
 H        -0.168349         2.924340        -0.472797
