19
Iteration:  4211
 O         0.098762         0.097175         0.881372
 C        -0.648357         1.243690         0.887881
 C        -1.990779         1.198631         0.325227
 C        -1.676107         1.837928         1.811683
 C        -1.230893         3.238641         1.557140
 O        -0.516378         3.754272         2.605785
 C         0.797642         3.118262         2.778804
 C         1.268589         3.012546         1.385858
 C        -0.074574         2.641296         0.634602
 H         0.965861         0.268073         1.355537
 H        -2.309689         1.633097        -0.529069
 H        -2.582400         0.208975         0.334161
 H        -2.138546         1.291685         2.544144
 H        -2.050788         3.861915         1.160195
 H         1.373149         3.851886         3.421704
 H         0.573303         2.159672         3.267327
 H         1.837686         4.069793         1.156737
 H         1.869569         2.105958         1.164971
 H         0.047297         2.899161        -0.439402
