19
Iteration:  2072charge 0 multiplicity 1
 O         0.111434        -0.003522         0.914075
 C        -0.585182         1.213323         0.843890
 C        -2.028117         1.126380         0.429842
 C        -1.729919         1.859023         1.765201
 C        -1.163247         3.322850         1.479329
 O        -0.541336         3.782773         2.650900
 C         0.790346         3.272636         2.816494
 C         1.295101         3.011133         1.405890
 C        -0.042610         2.627241         0.575618
 H        -0.336054        -0.572560         0.334996
 H        -2.512439         1.485222        -0.483916
 H        -2.451314         0.127649         0.735057
 H        -2.117440         1.484697         2.686626
 H        -2.012625         4.063534         1.254508
 H         1.552346         3.904627         3.476956
 H         0.844157         2.320930         3.310706
 H         1.727912         3.937380         0.940659
 H         2.023113         2.248895         1.262808
 H        -0.019778         2.808588        -0.543613
