19
Iteration:  2027
 O         0.308873         0.213574         0.983370
 C        -0.674531         1.195816         0.797009
 C        -2.148621         1.255921         0.423591
 C        -1.644208         1.778887         1.744959
 C        -1.230636         3.204577         1.551376
 O        -0.459825         3.907953         2.575397
 C         0.735544         3.166527         2.852223
 C         1.190792         2.821765         1.371004
 C        -0.067195         2.561556         0.566322
 H         0.013697        -0.577093         0.563102
 H        -2.454065         1.978877        -0.276444
 H        -2.802330         0.291764         0.560939
 H        -1.944179         1.317004         2.633479
 H        -1.916783         4.011949         1.102652
 H         1.394116         3.932181         3.499499
 H         0.709594         2.236913         3.443167
 H         1.751655         3.690960         0.892528
 H         1.818647         1.963764         1.278226
 H         0.170891         2.862453        -0.507273
