19
Iteration:  2893
 O         0.078984        -0.015259         0.747696
 C        -0.616653         1.164733         0.924395
 C        -2.103528         1.307460         0.420681
 C        -1.565177         1.817292         1.846196
 C        -1.141900         3.165728         1.473044
 O        -0.610277         3.864105         2.665597
 C         0.692963         3.261076         2.788113
 C         1.316066         2.973565         1.389907
 C         0.023418         2.600127         0.584210
 H         0.630060        -0.256346         1.561001
 H        -2.216868         1.846479        -0.427199
 H        -2.622334         0.265924         0.539938
 H        -1.961589         1.291299         2.768502
 H        -1.894139         3.895376         0.960484
 H         1.277953         3.912738         3.385931
 H         0.470420         2.338954         3.394000
 H         1.607536         3.841607         0.893023
 H         2.150040         2.241111         1.400464
 H         0.046224         3.026437        -0.407784
