19
Iteration:  3570
 O         0.038142         0.048561         0.854512
 C        -0.570084         1.263592         0.865514
 C        -2.148034         1.129614         0.372385
 C        -1.755385         1.797163         1.712121
 C        -1.140997         3.187233         1.526724
 O        -0.522582         3.753655         2.682006
 C         0.802138         3.254435         2.834327
 C         1.250760         3.035740         1.393969
 C         0.030357         2.630579         0.608309
 H         0.835716         0.115285         1.428902
 H        -2.432547         1.686987        -0.513977
 H        -2.439971         0.068526         0.407107
 H        -2.140450         1.361130         2.634813
 H        -1.564934         4.094087         1.054874
 H         1.374833         4.131054         3.247391
 H         0.976298         2.367031         3.479374
 H         1.702152         3.942272         0.905315
 H         1.933908         2.114315         1.201420
 H         0.124321         3.163252        -0.383989
