19
Iteration:   966
 O         0.037716        -0.145012         0.972895
 C        -0.630825         1.164830         0.821732
 C        -2.157972         1.253119         0.352865
 C        -1.765955         1.842513         1.719690
 C        -1.176979         3.180727         1.559186
 O        -0.531542         3.761818         2.702863
 C         0.903899         3.472487         2.734194
 C         1.331901         3.017615         1.361632
 C        -0.012011         2.567429         0.670562
 H         0.718114        -0.230343         0.324558
 H        -2.410881         1.869073        -0.413284
 H        -2.628611         0.211958         0.283067
 H        -2.130700         1.329002         2.574658
 H        -1.651035         4.038748         1.099062
 H         1.402141         4.416907         3.017463
 H         1.081497         2.802977         3.573620
 H         1.828061         3.781072         0.807210
 H         2.124604         2.330248         1.494891
 H        -0.092551         3.049820        -0.396226
