19
Iteration:  3530charge 0 multiplicity 1
 O         0.119054         0.024042         0.815259
 C        -0.590983         1.239580         0.848196
 C        -2.048518         1.251541         0.435061
 C        -1.648045         1.763992         1.752658
 C        -1.100275         3.197078         1.525630
 O        -0.502945         3.888871         2.645248
 C         0.658403         3.186804         2.818279
 C         1.201363         2.933517         1.362432
 C        -0.036002         2.668216         0.583693
 H         0.598199        -0.170118         1.642333
 H        -2.353594         1.977266        -0.290298
 H        -2.478512         0.201170         0.535889
 H        -1.878072         1.306002         2.792826
 H        -1.976128         3.726066         1.032782
 H         1.410113         3.677623         3.517040
 H         0.429675         2.247327         3.361058
 H         1.466082         3.992679         1.112454
 H         1.938660         2.210425         1.270658
 H         0.007860         2.805058        -0.457098
