19
Iteration:  2530charge 0 multiplicity 1
 O         0.132674         0.033672         1.098982
 C        -0.658553         1.207932         0.919045
 C        -2.086994         1.189143         0.318271
 C        -1.711431         1.841877         1.675361
 C        -1.203814         3.248736         1.589749
 O        -0.449723         3.800806         2.678570
 C         0.785645         3.222545         2.750487
 C         1.270035         3.049152         1.245932
 C        -0.050183         2.557997         0.609314
 H         0.442122        -0.381920         0.268048
 H        -2.392802         1.865667        -0.503338
 H        -2.538667         0.068750         0.365462
 H        -2.034846         1.348050         2.597821
 H        -1.959557         3.890656         1.245442
 H         1.498949         3.802171         3.410245
 H         0.784565         2.224200         3.184263
 H         1.498855         4.061244         0.867188
 H         2.164385         2.428605         1.025044
 H        -0.272538         2.997694        -0.379902
