19
Iteration:  1532
 O         0.133157         0.071119         1.078911
 C        -0.595876         1.213686         0.810749
 C        -2.048589         1.193699         0.227732
 C        -1.728268         1.773504         1.764198
 C        -1.201583         3.198637         1.646411
 O        -0.493122         3.859080         2.667494
 C         0.871342         3.243774         2.760911
 C         1.225336         3.007920         1.329427
 C        -0.054206         2.564444         0.602429
 H        -0.357950        -0.556788         0.613684
 H        -2.610563         1.689515        -0.556006
 H        -2.373044         0.217853         0.462848
 H        -2.435146         1.367235         2.417806
 H        -1.798744         4.014665         1.141546
 H         1.461503         3.893361         3.355303
 H         0.719000         2.273706         3.240250
 H         1.487174         4.002201         0.889324
 H         2.181231         2.513257         1.098222
 H         0.127193         2.821103        -0.489830
