19
Iteration:  4853charge 0 multiplicity 1
 O         0.022229         0.018090         0.797109
 C        -0.576622         1.233957         0.940184
 C        -2.031040         1.211102         0.344648
 C        -1.753347         1.840537         1.667705
 C        -1.081349         3.185923         1.532105
 O        -0.591048         3.744423         2.692402
 C         0.721320         3.252017         2.824530
 C         1.301681         3.023677         1.401948
 C        -0.002292         2.618398         0.639392
 H         0.835602         0.055245         1.331506
 H        -2.253546         1.829783        -0.519457
 H        -2.317626         0.042831         0.613822
 H        -2.122459         1.537863         2.746239
 H        -1.753690         3.956488         1.038449
 H         1.399840         4.033916         3.299044
 H         0.816233         2.264553         3.345501
 H         1.728779         3.981223         1.112397
 H         2.164193         2.302280         1.272317
 H        -0.094568         2.868586        -0.475256
