19
Iteration:  4806
 O         0.207504         0.125932         0.896862
 C        -0.628652         1.172609         0.747690
 C        -2.062027         1.235935         0.357374
 C        -1.657572         1.759116         1.765182
 C        -1.154888         3.278028         1.551772
 O        -0.534133         3.852190         2.633060
 C         0.686314         3.126275         2.835473
 C         1.238739         2.864129         1.381204
 C        -0.061749         2.686263         0.595255
 H         0.524260         0.017354         1.866650
 H        -2.374316         1.999477        -0.402115
 H        -2.615545         0.369247         0.456909
 H        -2.145346         1.131307         2.633525
 H        -1.817542         3.989519         1.052959
 H         1.290388         3.702545         3.451678
 H         0.549080         2.130346         3.327976
 H         1.683061         3.807915         1.052704
 H         1.905322         2.067588         1.341970
 H         0.158955         3.133649        -0.270204
