19
Iteration:  3269charge 0 multiplicity 1
 O         0.063452        -0.052954         0.866213
 C        -0.588229         1.227334         0.828729
 C        -2.092336         1.186773         0.343227
 C        -1.690466         1.789507         1.735356
 C        -1.190946         3.292566         1.533611
 O        -0.537019         3.722122         2.695154
 C         0.808276         3.293107         2.821700
 C         1.261944         3.055536         1.378629
 C         0.033099         2.648707         0.573045
 H         0.364484        -0.262871         1.739618
 H        -2.569633         1.742424        -0.500013
 H        -2.476030         0.154253         0.493654
 H        -1.928262         1.534517         2.711157
 H        -1.871649         4.070583         1.157662
 H         1.299494         4.106577         3.440197
 H         0.787248         2.310460         3.438309
 H         1.607016         4.036717         0.960599
 H         2.026686         2.253224         1.379597
 H         0.092437         2.884243        -0.573666
