19
Iteration:   627charge 0 multiplicity 1
 O         0.228438         0.072012         0.963971
 C        -0.665473         1.237706         0.788094
 C        -2.084511         1.276506         0.461338
 C        -1.702073         1.816148         1.831791
 C        -1.170004         3.192325         1.460751
 O        -0.555825         3.889865         2.615092
 C         0.741917         3.252393         2.764934
 C         1.322033         2.846466         1.362448
 C        -0.015839         2.598131         0.592089
 H        -0.183814        -0.791664         0.979936
 H        -2.485298         2.053947        -0.236864
 H        -2.618246         0.272666         0.338465
 H        -2.206365         1.231722         2.690820
 H        -2.058911         3.760151         1.067724
 H         1.349020         3.938929         3.328470
 H         0.707077         2.324914         3.407714
 H         1.821422         3.770717         1.029402
 H         2.005369         1.972139         1.272732
 H         0.055004         2.913640        -0.474009
