19
Iteration:   403charge 0 multiplicity 1
 O         0.287836         0.027705         1.013035
 C        -0.655299         1.167711         0.911108
 C        -2.054713         1.254454         0.333061
 C        -1.798272         1.871542         1.780007
 C        -1.214156         3.199076         1.527507
 O        -0.459397         3.903741         2.662148
 C         0.721634         3.237746         2.761836
 C         1.274240         2.975681         1.314837
 C        -0.044925         2.535638         0.580151
 H        -0.361594        -0.723962         0.756938
 H        -2.071289         1.954156        -0.479176
 H        -2.796344         0.458186         0.186964
 H        -2.304776         1.369194         2.761989
 H        -1.963644         3.922160         1.123108
 H         1.423608         3.911881         3.363658
 H         0.744668         2.225192         3.148881
 H         1.854005         3.613633         0.661737
 H         1.848881         2.080655         1.420259
 H        -0.107836         2.854886        -0.434900
