19
Iteration:  3422charge 0 multiplicity 1
 O         0.074845        -0.014923         0.867303
 C        -0.580063         1.223488         0.848909
 C        -2.017457         1.280175         0.292492
 C        -1.653168         1.783473         1.733988
 C        -1.230570         3.186318         1.644131
 O        -0.502453         3.848464         2.642308
 C         0.776833         3.230955         2.790963
 C         1.235787         2.991100         1.377691
 C        -0.037833         2.591742         0.641282
 H         0.335151        -0.144065         1.776431
 H        -2.450144         1.895635        -0.527683
 H        -2.656605         0.384122         0.305825
 H        -2.111282         1.105161         2.522048
 H        -1.910263         3.834111         1.142950
 H         1.493888         3.962243         3.254428
 H         0.813649         2.319600         3.409625
 H         1.583935         3.971825         0.951191
 H         2.206724         2.424892         1.290619
 H        -0.133049         2.925524        -0.429009
