19
Iteration:   210
 O         0.109423         0.129810         1.141875
 C        -0.647172         1.199791         0.867792
 C        -1.921431         1.209563         0.248674
 C        -1.766930         1.828019         1.724101
 C        -1.164652         3.225163         1.532751
 O        -0.451197         3.792492         2.687746
 C         0.869446         3.247264         2.732985
 C         1.168111         2.981042         1.306843
 C        -0.115205         2.531368         0.591023
 H        -0.338820        -0.757366         1.025309
 H        -2.233309         1.804331        -0.615301
 H        -2.547415         0.230757         0.186310
 H        -2.479994         1.437183         2.612377
 H        -1.863856         4.076986         1.297765
 H         1.495728         3.956010         3.311935
 H         0.941446         2.285856         3.360938
 H         1.514640         4.002962         0.866429
 H         2.051888         2.324247         0.933075
 H         0.119572         2.684167        -0.485913
