19
Iteration:  3635charge 0 multiplicity 1
 O         0.094556         0.117205         0.928921
 C        -0.618396         1.285936         0.803877
 C        -2.030082         1.194758         0.364510
 C        -1.747668         1.770588         1.702007
 C        -1.230908         3.219566         1.610574
 O        -0.498931         3.792875         2.695063
 C         0.780475         3.158428         2.846810
 C         1.230637         2.984886         1.272931
 C         0.060202         2.617350         0.557480
 H         0.334916        -0.099872         1.800837
 H        -2.319234         1.710912        -0.557896
 H        -2.507092         0.148768         0.433395
 H        -2.052828         1.373667         2.736915
 H        -2.097314         3.874647         1.301829
 H         1.374965         3.972978         3.301167
 H         0.645387         2.183891         3.365847
 H         1.820790         3.852710         0.861561
 H         2.173802         2.181558         1.283793
 H         0.016917         2.929045        -0.605701
