19
Iteration:  1788
 O         0.141095         0.105121         1.011206
 C        -0.573088         1.270488         0.795146
 C        -2.093443         1.199589         0.470556
 C        -1.655079         1.852559         1.730841
 C        -1.205915         3.261981         1.511863
 O        -0.573004         3.759981         2.679598
 C         0.716104         3.244177         2.774597
 C         1.261565         2.871902         1.345005
 C         0.012724         2.592334         0.556334
 H         0.529803        -0.045673         0.153747
 H        -2.705689         1.757673        -0.300978
 H        -2.360488         0.091497         0.515962
 H        -2.122857         1.547509         2.715472
 H        -1.771568         4.047106         1.025833
 H         1.356658         3.889689         3.447351
 H         0.670803         2.250660         3.240180
 H         1.855094         3.792566         0.835724
 H         2.025158         2.124888         1.450835
 H         0.128732         2.653274        -0.534670
