19
Iteration:  4409charge 0 multiplicity 1
 O         0.192451         0.106424         0.864747
 C        -0.568591         1.258786         0.908508
 C        -2.020446         1.223006         0.345531
 C        -1.751853         1.778733         1.774655
 C        -1.221865         3.249471         1.598431
 O        -0.544463         3.825164         2.591160
 C         0.727950         3.071247         2.769843
 C         1.261573         2.957464         1.396047
 C        -0.056358         2.659890         0.619226
 H         0.585823        -0.012665         1.721395
 H        -2.340047         1.926150        -0.543549
 H        -2.357621         0.195511         0.287931
 H        -2.335831         1.281144         2.648081
 H        -1.933508         4.024815         1.151615
 H         1.491874         3.712360         3.367088
 H         0.701743         2.150960         3.259729
 H         1.808322         3.883472         0.948490
 H         1.914381         2.163197         1.174836
 H        -0.096007         2.854166        -0.453234
