19
Iteration:   423
 O         0.179212         0.118610         1.050476
 C        -0.678071         1.197786         0.884062
 C        -2.051940         1.177551         0.345618
 C        -1.797225         1.805980         1.711752
 C        -1.171124         3.229765         1.508970
 O        -0.511743         3.883891         2.633743
 C         0.860131         3.189560         2.753208
 C         1.285667         2.950249         1.315472
 C        -0.037479         2.592290         0.673256
 H        -0.284856        -0.643702         0.662688
 H        -2.482912         1.618922        -0.524114
 H        -2.477413         0.086490         0.383463
 H        -2.454318         1.318272         2.506188
 H        -1.770612         4.033633         1.044328
 H         1.512837         3.931041         3.269967
 H         0.743633         2.275381         3.404605
 H         1.781503         3.939733         0.985397
 H         2.086709         2.225142         1.162799
 H         0.004065         2.928890        -0.336620
