19
Iteration:  2899
 O         0.098726        -0.042195         0.745235
 C        -0.592347         1.179921         0.913195
 C        -2.091073         1.267022         0.463510
 C        -1.588136         1.826959         1.826246
 C        -1.189059         3.199062         1.471682
 O        -0.609099         3.881998         2.675986
 C         0.695813         3.233914         2.782065
 C         1.302400         2.950267         1.402756
 C         0.031215         2.621457         0.566440
 H         0.550269        -0.177199         1.615201
 H        -2.138168         1.938519        -0.479781
 H        -2.689102         0.418057         0.466060
 H        -1.866180         1.395745         2.770782
 H        -2.024432         3.765805         1.093703
 H         1.438668         3.906238         3.322450
 H         0.422982         2.330201         3.322506
 H         1.685187         3.950554         0.975708
 H         2.049053         2.137634         1.334880
 H         0.160411         3.017148        -0.471230
