19
Iteration:  4558charge 0 multiplicity 1
 O         0.078048         0.013893         0.827365
 C        -0.561180         1.213305         0.805768
 C        -2.099056         1.196267         0.394328
 C        -1.637448         1.843950         1.700471
 C        -1.117056         3.179870         1.506957
 O        -0.575577         3.777736         2.739351
 C         0.673890         3.280100         2.825895
 C         1.242161         2.993437         1.397395
 C         0.005633         2.648300         0.587299
 H         0.794667         0.079117         1.541695
 H        -2.573346         1.686754        -0.394326
 H        -2.435755         0.208953         0.543850
 H        -1.917261         1.474752         2.755520
 H        -1.711958         3.945490         1.059517
 H         1.282846         3.964004         3.320740
 H         0.705565         2.250270         3.241900
 H         1.786891         3.865327         1.103379
 H         1.996064         2.023457         1.372508
 H         0.194317         3.036169        -0.428042
