19
Iteration:  2672
 O         0.089830         0.030816         0.839027
 C        -0.613830         1.221336         0.775867
 C        -2.109011         1.227306         0.397232
 C        -1.699719         1.775446         1.786142
 C        -1.098858         3.159077         1.547907
 O        -0.531765         3.828314         2.662402
 C         0.758560         3.361621         2.857725
 C         1.243840         2.902457         1.341489
 C         0.016828         2.621843         0.602866
 H         0.490894        -0.091828         1.711381
 H        -2.545127         1.885080        -0.297960
 H        -2.394814         0.213568         0.296397
 H        -2.168294         1.278639         2.687678
 H        -1.867261         3.836309         1.156913
 H         1.390729         4.212317         3.229498
 H         0.691835         2.373238         3.485332
 H         1.741368         3.744203         0.911223
 H         1.971008         2.112549         1.338080
 H         0.038061         2.925216        -0.451213
