19
Iteration:  4585charge 0 multiplicity 1
 O         0.116374         0.041884         0.789489
 C        -0.630758         1.206163         0.852225
 C        -2.012184         1.184973         0.411368
 C        -1.758773         1.848214         1.807618
 C        -1.198165         3.175532         1.477354
 O        -0.521946         3.841045         2.651994
 C         0.725404         3.206136         2.873141
 C         1.304443         2.950465         1.467411
 C        -0.041005         2.623804         0.544563
 H         1.016570         0.292678         1.157971
 H        -2.522780         1.640494        -0.547622
 H        -2.422215         0.058654         0.299120
 H        -2.200734         1.547570         2.693506
 H        -1.793357         4.019354         1.031000
 H         1.366304         4.021618         3.534471
 H         0.660092         2.189903         3.296222
 H         1.661485         4.002394         1.219079
 H         2.085663         2.293965         1.339776
 H         0.217229         2.924341        -0.487638
