19
Iteration:  3317
 O         0.179385         0.138040         0.927396
 C        -0.625393         1.264997         0.846709
 C        -1.992002         1.194440         0.426707
 C        -1.771425         1.803913         1.769607
 C        -1.237210         3.230467         1.511532
 O        -0.475732         3.828616         2.600711
 C         0.754734         3.042302         2.761681
 C         1.222357         2.931474         1.398039
 C        -0.054633         2.699156         0.544967
 H         0.842551         0.240822         1.664438
 H        -2.195352         1.948146        -0.308732
 H        -2.455293         0.194929         0.243480
 H        -2.115189         1.258571         2.752784
 H        -2.067789         4.074907         1.278192
 H         1.362698         3.555609         3.505071
 H         0.565139         2.078743         3.267335
 H         1.736448         3.808572         1.112594
 H         1.758332         1.992791         1.248506
 H         0.005588         2.848873        -0.524164
