19
Iteration:  1363
 O         0.022068        -0.000050         1.095722
 C        -0.672721         1.253633         0.774264
 C        -1.988687         1.192736         0.316812
 C        -1.684029         1.737277         1.727024
 C        -1.196585         3.187702         1.613464
 O        -0.479754         3.803720         2.659408
 C         0.832958         3.325878         2.759411
 C         1.254486         2.914143         1.343485
 C        -0.077387         2.684730         0.607517
 H         0.624826        -0.071087         0.370839
 H        -2.309737         1.867042        -0.440334
 H        -2.439030         0.149411         0.341679
 H        -2.110902         1.299516         2.553535
 H        -1.917671         3.937000         1.162512
 H         1.456798         4.245858         3.058475
 H         0.979872         2.450954         3.533482
 H         1.599264         3.923732         0.909415
 H         2.065956         2.200005         0.966058
 H         0.003874         3.045319        -0.422464
