19
Iteration:   747charge 0 multiplicity 1
 O         0.014263         0.011766         1.113195
 C        -0.674574         1.177539         0.838306
 C        -2.089008         1.111702         0.361486
 C        -1.830815         1.841255         1.655995
 C        -1.082035         3.237947         1.566765
 O        -0.513789         3.777953         2.727218
 C         0.834391         3.317392         2.803136
 C         1.389207         3.037970         1.239296
 C         0.016604         2.646115         0.557772
 H         0.192221        -0.376140         0.197728
 H        -2.429168         1.674029        -0.549917
 H        -2.429309         0.148156         0.393999
 H        -2.117360         1.346032         2.731279
 H        -1.880236         3.982675         1.208234
 H         1.316644         4.258089         3.159067
 H         0.967389         2.424685         3.505071
 H         1.746697         3.905785         0.677156
 H         2.027635         2.163696         1.233919
 H         0.082095         2.862540        -0.456417
