19
Iteration:  2105
 O         0.113554         0.033541         1.068804
 C        -0.671194         1.208498         0.806149
 C        -2.147084         1.269749         0.390213
 C        -1.634533         1.735605         1.743188
 C        -1.159769         3.185574         1.508999
 O        -0.557261         3.756322         2.631748
 C         0.825127         3.275017         2.804961
 C         1.328183         3.056789         1.368264
 C        -0.032410         2.587064         0.559231
 H         0.277520        -0.262712         0.140937
 H        -2.519316         1.980533        -0.385339
 H        -2.572131         0.299484         0.464525
 H        -2.001948         1.295721         2.688638
 H        -1.858141         4.013716         1.162016
 H         1.338470         4.085722         3.475477
 H         0.831960         2.340047         3.161630
 H         1.635502         4.055152         1.012755
 H         2.122917         2.324580         1.241554
 H        -0.003553         2.870187        -0.527706
