19
Iteration:  4037
 O         0.149745         0.069801         0.781965
 C        -0.568031         1.250350         0.821531
 C        -2.109005         1.170213         0.388633
 C        -1.663461         1.755762         1.824688
 C        -1.150824         3.192865         1.512662
 O        -0.533757         3.896389         2.646018
 C         0.733773         3.200482         2.848596
 C         1.212598         2.908651         1.399809
 C        -0.012782         2.660605         0.555238
 H         0.490949        -0.010071         1.662471
 H        -2.451014         1.853451        -0.365396
 H        -2.528116         0.240256         0.518726
 H        -2.088098         1.435439         2.799910
 H        -1.931736         3.995425         1.369950
 H         1.461063         3.622039         3.675498
 H         0.378388         2.226064         3.305682
 H         1.702702         3.806009         0.946691
 H         1.992421         2.178278         1.393133
 H         0.064252         2.993993        -0.573156
