19
Iteration:   233
 O         0.168889         0.029976         1.134294
 C        -0.660871         1.181639         0.899654
 C        -2.099277         1.237095         0.366344
 C        -1.804279         1.850047         1.661127
 C        -1.132006         3.188540         1.460410
 O        -0.534067         3.728546         2.708212
 C         0.830218         3.300935         2.752572
 C         1.339318         3.039445         1.269719
 C        -0.037725         2.577331         0.605461
 H        -0.177018        -0.634293         0.483342
 H        -2.312685         1.946126        -0.486699
 H        -2.780352         0.355029         0.252045
 H        -2.461749         1.636380         2.568536
 H        -1.887543         3.941973         1.068393
 H         1.379206         4.114678         3.241257
 H         1.059094         2.406509         3.430216
 H         1.857203         4.001409         0.853932
 H         2.186644         2.231308         1.210914
 H         0.011158         2.824698        -0.466042
