19
Iteration:  2410charge 0 multiplicity 1
 O         0.197678         0.072140         0.860228
 C        -0.613690         1.243882         0.838096
 C        -2.074992         1.185119         0.555566
 C        -1.716172         1.797925         1.778051
 C        -1.132170         3.285190         1.475523
 O        -0.548106         3.853527         2.595740
 C         0.717615         3.108883         2.782676
 C         1.196080         2.944493         1.355520
 C        -0.007713         2.639213         0.529152
 H         0.430303        -0.201065         1.746795
 H        -2.419710         1.813036        -0.312925
 H        -2.596407         0.120187         0.736314
 H        -2.026781         1.356760         2.654899
 H        -1.840044         4.046458         1.213654
 H         1.379832         3.750429         3.280143
 H         0.582784         2.159230         3.374705
 H         1.795231         3.877382         1.130555
 H         1.935828         2.113131         1.308691
 H         0.190268         3.164761        -0.407707
