19
Iteration:  4437
 O         0.159538         0.054685         0.925210
 C        -0.565115         1.205230         0.764880
 C        -2.031948         1.184587         0.386104
 C        -1.718249         1.864877         1.753778
 C        -1.138378         3.274920         1.535573
 O        -0.541585         3.793001         2.714676
 C         0.699846         3.094247         2.824238
 C         1.192596         3.030285         1.363370
 C        -0.039865         2.630561         0.550044
 H         0.823675         0.341048         1.524605
 H        -2.394425         1.746171        -0.428504
 H        -2.492863         0.105586         0.409071
 H        -2.201071         1.530794         2.639304
 H        -1.700180         4.063745         1.098577
 H         1.395493         3.690188         3.378094
 H         0.666588         1.978680         3.237598
 H         1.586779         3.884528         0.922195
 H         1.972933         2.205510         1.160308
 H        -0.080375         2.938562        -0.507840
