19
Iteration:  3924
 O         0.076281         0.021524         0.921347
 C        -0.596661         1.213013         0.753940
 C        -2.025707         1.242696         0.345124
 C        -1.664629         1.783744         1.707218
 C        -1.218054         3.187420         1.597430
 O        -0.486525         3.807756         2.708493
 C         0.756495         3.190885         2.791464
 C         1.242433         3.062973         1.307105
 C        -0.032353         2.624314         0.616737
 H         0.616089         0.005385         1.786151
 H        -2.232280         1.897501        -0.375165
 H        -2.588864         0.297326         0.526212
 H        -2.187574         1.439102         2.647293
 H        -2.029703         3.784880         1.243102
 H         1.460581         3.776488         3.313426
 H         0.692503         2.203827         3.374475
 H         1.783276         3.955822         0.908280
 H         1.945461         2.209672         1.369879
 H        -0.181723         2.964626        -0.498077
