19
Iteration:  2819charge 0 multiplicity 1
 O         0.181200         0.056943         0.899023
 C        -0.630103         1.273523         0.892262
 C        -2.074641         1.268477         0.385449
 C        -1.737363         1.773484         1.735490
 C        -1.197360         3.259885         1.536150
 O        -0.570568         3.730018         2.625538
 C         0.796594         3.233026         2.798203
 C         1.318168         2.870005         1.360285
 C        -0.060780         2.634913         0.568441
 H         0.693975         0.250292         1.727098
 H        -2.487637         2.025044        -0.337050
 H        -2.564919         0.175191         0.333551
 H        -2.165795         1.316588         2.649390
 H        -1.910529         3.929043         1.155505
 H         1.338523         4.082593         3.196624
 H         0.804503         2.596523         3.712505
 H         1.846750         3.766409         0.963988
 H         2.059522         2.076286         1.216123
 H        -0.107823         2.889894        -0.524973
