19
Iteration:  2285charge 0 multiplicity 1
 O         0.133018         0.045037         0.943377
 C        -0.647258         1.272990         0.787668
 C        -2.081381         1.172075         0.383733
 C        -1.624113         1.819902         1.731406
 C        -1.133357         3.202916         1.534410
 O        -0.636024         3.759604         2.761608
 C         0.811341         3.392644         2.806713
 C         1.255377         2.864472         1.366062
 C         0.011320         2.663312         0.524827
 H        -0.145587        -0.728363         0.490390
 H        -2.554780         1.765278        -0.458612
 H        -2.307458         0.087258         0.540947
 H        -2.089306         1.488919         2.660351
 H        -1.888426         3.969026         1.263017
 H         1.395760         4.431524         3.041482
 H         0.988979         2.648799         3.537967
 H         1.872409         3.614866         0.877085
 H         1.782731         1.891427         1.531958
 H         0.141957         2.764813        -0.570104
