19
Iteration:   567charge 0 multiplicity 1
 O         0.126409         0.023458         0.960380
 C        -0.679281         1.204402         0.831956
 C        -2.125791         1.158056         0.427299
 C        -1.717470         1.855629         1.697100
 C        -1.107353         3.211708         1.473690
 O        -0.536779         3.756736         2.677846
 C         0.814207         3.372409         2.787354
 C         1.303983         2.972295         1.407254
 C         0.029989         2.631749         0.577551
 H        -0.438910        -0.673571         0.706971
 H        -2.665612         1.637860        -0.420943
 H        -2.485646         0.241525         0.699405
 H        -1.972604         1.429496         2.690804
 H        -1.833608         3.944086         1.094588
 H         1.390506         4.214620         3.259970
 H         0.746468         2.476431         3.396473
 H         1.833432         3.803558         0.867598
 H         1.918199         2.084091         1.324405
 H         0.111199         2.949777        -0.448061
