19
Iteration:  2787charge 0 multiplicity 1
 O         0.216533         0.089626         0.983301
 C        -0.649555         1.271742         0.808670
 C        -2.049999         1.166196         0.410689
 C        -1.762390         1.863034         1.664349
 C        -1.182955         3.294719         1.574694
 O        -0.541527         3.820790         2.710369
 C         0.784055         3.086800         2.775221
 C         1.281846         2.938385         1.323945
 C        -0.055273         2.628908         0.490625
 H         0.216864        -0.076228         1.962897
 H        -2.602526         1.743167        -0.400590
 H        -2.310070        -0.034526         0.557611
 H        -2.135235         1.280918         2.540304
 H        -1.828747         4.110865         1.267774
 H         1.560667         3.693305         3.321153
 H         0.480408         2.095570         3.232715
 H         1.681032         3.992588         1.001727
 H         2.164511         2.261526         1.258614
 H        -0.160862         2.838032        -0.615883
