19
Iteration:  4260charge 0 multiplicity 1
 O         0.133603         0.111359         0.831156
 C        -0.581637         1.257528         0.802570
 C        -2.067220         1.142315         0.467196
 C        -1.656572         1.810146         1.729541
 C        -1.158651         3.258296         1.498259
 O        -0.550088         3.771180         2.660926
 C         0.699581         3.172765         2.858472
 C         1.301455         2.882429         1.381698
 C        -0.054926         2.714039         0.586240
 H         0.778794         0.087578         1.541044
 H        -2.634815         1.602930        -0.416360
 H        -2.566286         0.241825         0.520571
 H        -2.240567         1.592741         2.759468
 H        -1.975403         3.854085         1.052245
 H         1.352023         3.862084         3.301259
 H         0.622059         2.240457         3.442093
 H         1.592557         3.816679         1.036225
 H         2.131697         2.107293         1.311031
 H         0.072415         3.088238        -0.507631
