19
Iteration:  1140charge 0 multiplicity 1
 O         0.160093         0.066791         0.836613
 C        -0.695570         1.226445         0.893856
 C        -2.012312         1.179781         0.316017
 C        -1.748350         1.797723         1.811248
 C        -1.157146         3.142536         1.564663
 O        -0.500873         3.945987         2.675379
 C         0.818098         3.349302         2.813590
 C         1.239307         2.875725         1.358866
 C        -0.006990         2.557584         0.621137
 H        -0.260212        -0.781910         0.680014
 H        -2.273388         1.720268        -0.507403
 H        -2.352259         0.115274         0.522613
 H        -2.376522         1.379917         2.617558
 H        -1.863709         3.794547         1.129213
 H         1.369923         4.226402         3.237858
 H         0.775199         2.476033         3.458804
 H         1.642909         3.718586         0.799184
 H         1.903734         2.004669         1.409017
 H        -0.098757         3.064729        -0.283116
