19
Iteration:   487
 O         0.160765         0.132565         1.115688
 C        -0.696523         1.267842         0.873073
 C        -2.051573         1.203049         0.395472
 C        -1.715174         1.801907         1.781365
 C        -1.168045         3.296512         1.512103
 O        -0.442126         3.814567         2.560762
 C         0.739156         3.083675         2.763819
 C         1.226953         2.959169         1.352489
 C        -0.045454         2.575748         0.547470
 H         0.766361         0.078924         0.413670
 H        -2.376367         1.830867        -0.444552
 H        -2.462403         0.093182         0.404408
 H        -2.269417         1.295997         2.584133
 H        -1.868985         3.993768         1.048308
 H         1.345711         3.731298         3.354297
 H         0.692854         2.153940         3.386292
 H         1.671635         3.909288         0.855473
 H         1.935231         2.121874         1.260262
 H        -0.150907         2.850677        -0.578903
