19
Iteration:   868
 O         0.267853         0.222694         0.890449
 C        -0.595781         1.263523         0.922390
 C        -2.139845         1.164788         0.603035
 C        -1.727615         1.881194         1.857301
 C        -1.143604         3.256887         1.367821
 O        -0.531280         3.839190         2.516249
 C         0.686350         3.027317         2.779359
 C         1.296308         2.845849         1.442711
 C        -0.024609         2.629605         0.485986
 H        -0.127990        -0.527732         0.527358
 H        -2.576462         1.670780        -0.250736
 H        -2.580553         0.164004         0.740471
 H        -2.144467         1.946043         2.941360
 H        -1.814260         4.106578         1.083132
 H         1.295465         3.615910         3.480249
 H         0.426334         2.024197         3.169150
 H         1.830925         3.803720         1.239196
 H         1.916562         2.000008         1.434287
 H         0.036316         2.849707        -0.573415
