19
Iteration:   295charge 0 multiplicity 1
 O         0.181019         0.060956         1.030516
 C        -0.614931         1.172491         0.820384
 C        -2.130272         1.258506         0.440797
 C        -1.696276         1.802007         1.746741
 C        -1.151617         3.194898         1.562204
 O        -0.476816         3.956045         2.532101
 C         0.656021         3.234136         2.711529
 C         1.327951         2.886269         1.420173
 C        -0.047672         2.594374         0.608067
 H         0.453948        -0.329633         0.170003
 H        -2.367249         1.880111        -0.371813
 H        -2.644683         0.269064         0.580518
 H        -1.898717         1.129529         2.740749
 H        -1.972560         3.899354         1.359260
 H         1.271156         3.891884         3.460291
 H         0.503002         2.322618         3.250263
 H         1.845428         3.601081         0.900330
 H         1.701333         1.907070         1.497218
 H        -0.020645         2.918561        -0.498714
