19
Iteration:  3132charge 0 multiplicity 1
 O         0.130596         0.069906         0.795806
 C        -0.612652         1.228599         0.781968
 C        -2.026524         1.253550         0.478343
 C        -1.634859         1.773622         1.867812
 C        -1.176917         3.177505         1.506791
 O        -0.534094         3.911067         2.517864
 C         0.661374         3.101282         2.854191
 C         1.244174         2.915430         1.392195
 C        -0.012213         2.634660         0.620764
 H         0.649612         0.214527         1.657484
 H        -2.442531         1.925824        -0.258397
 H        -2.354573         0.269257         0.521703
 H        -2.088093         1.755778         2.820239
 H        -1.894497         3.764536         1.108324
 H         1.395533         3.587288         3.507188
 H         0.415758         2.086996         3.315634
 H         1.626018         3.885089         1.086403
 H         2.102855         2.228609         1.359334
 H        -0.011344         3.035138        -0.368070
