19
Iteration:  4708charge 0 multiplicity 1
 O         0.084611        -0.056684         0.944295
 C        -0.593119         1.262052         0.872408
 C        -1.976411         1.282166         0.319125
 C        -1.786253         1.768931         1.714489
 C        -1.158353         3.212968         1.589473
 O        -0.541024         3.768162         2.703262
 C         0.754164         3.242943         2.798382
 C         1.264040         3.028606         1.344632
 C        -0.024411         2.651802         0.552944
 H         1.056151         0.195192         1.185991
 H        -2.251832         2.025685        -0.477783
 H        -2.548025         0.344804         0.220565
 H        -2.383612         1.170413         2.466675
 H        -1.923864         3.912133         1.229917
 H         1.433186         3.772359         3.406191
 H         0.645212         2.271287         3.288980
 H         1.738968         3.902726         0.995445
 H         1.938539         2.264635         1.329625
 H         0.089807         2.824345        -0.494406
