19
Iteration:  3887
 O         0.110009         0.144266         0.896130
 C        -0.595087         1.258335         0.807833
 C        -1.986841         1.218866         0.431669
 C        -1.720247         1.783901         1.754495
 C        -1.214932         3.236647         1.507451
 O        -0.494287         3.791449         2.702028
 C         0.739616         3.058464         2.767790
 C         1.231380         2.993015         1.354408
 C        -0.041504         2.632278         0.560557
 H         0.612895         0.309321         1.739620
 H        -2.544519         1.574929        -0.544768
 H        -2.471443         0.244765         0.610826
 H        -2.029272         1.501570         2.699673
 H        -1.787448         4.128804         1.192417
 H         1.430323         3.647204         3.439237
 H         0.542926         2.052306         3.206446
 H         1.646340         3.899674         0.930028
 H         2.044507         2.197146         1.267980
 H         0.006838         2.761539        -0.519738
