19
Iteration:  4041charge 0 multiplicity 1
 O         0.157181         0.064704         0.769868
 C        -0.598883         1.228448         0.814209
 C        -2.076097         1.198017         0.402793
 C        -1.636166         1.814697         1.853640
 C        -1.168049         3.206466         1.512888
 O        -0.522835         3.868186         2.639444
 C         0.704033         3.175487         2.847711
 C         1.184070         2.946086         1.416034
 C        -0.000291         2.645604         0.522358
 H         0.533964        -0.079478         1.706069
 H        -2.428557         1.850901        -0.455808
 H        -2.465747         0.096630         0.685948
 H        -2.100037         1.342711         2.670019
 H        -1.849006         4.057688         1.315633
 H         1.405702         3.651797         3.573500
 H         0.479805         2.233355         3.357210
 H         1.687539         3.761656         0.986578
 H         1.948253         2.114116         1.420529
 H        -0.011491         2.935932        -0.449930
