19
Iteration:  1498
 O         0.312385         0.100232         0.929156
 C        -0.634796         1.258158         0.820680
 C        -2.085410         1.206057         0.466694
 C        -1.797113         1.867040         1.792661
 C        -1.202165         3.264462         1.483486
 O        -0.595696         3.723797         2.651727
 C         0.809898         3.260517         2.744322
 C         1.301602         2.872071         1.371620
 C        -0.001567         2.626398         0.556629
 H        -0.201988        -0.686145         1.054195
 H        -2.638099         1.714091        -0.319530
 H        -2.481319         0.276230         0.564209
 H        -2.359198         1.815397         2.726197
 H        -1.840532         4.168411         1.116680
 H         1.229209         3.959588         3.355152
 H         0.763676         2.335756         3.350185
 H         1.848600         3.706995         0.932429
 H         1.781223         1.822165         1.436807
 H         0.008259         2.913767        -0.538727
