19
Iteration:  3853charge 0 multiplicity 1
 O         0.178068         0.114858         0.907963
 C        -0.637912         1.221345         0.792283
 C        -2.063464         1.154336         0.434178
 C        -1.796939         1.860884         1.703690
 C        -1.207557         3.298561         1.452234
 O        -0.488719         3.733225         2.708627
 C         0.774130         3.128046         2.794661
 C         1.252643         2.947727         1.382352
 C        -0.102633         2.661818         0.608597
 H         1.097779         0.450466         1.243565
 H        -2.540063         1.743603        -0.554990
 H        -2.422484         0.257087         0.822576
 H        -1.962502         1.360048         2.649969
 H        -1.789625         4.186716         1.053116
 H         1.475911         3.752722         3.478472
 H         0.895175         2.123388         3.290015
 H         1.802132         3.860846         1.147095
 H         1.906523         2.047063         1.241704
 H         0.132704         2.839463        -0.449250
