19
Iteration:   780charge 0 multiplicity 1
 O         0.127180         0.021664         1.077778
 C        -0.683154         1.195662         0.936844
 C        -2.032125         1.276933         0.351014
 C        -1.823768         1.850027         1.705262
 C        -1.123301         3.244110         1.513092
 O        -0.523355         3.643735         2.681571
 C         0.853163         3.336389         2.756479
 C         1.273313         3.023730         1.248252
 C        -0.005760         2.526267         0.613413
 H        -0.236469        -0.595312         0.484380
 H        -2.086993         1.936323        -0.557177
 H        -2.627047         0.444970         0.348443
 H        -2.288778         1.674549         2.794274
 H        -1.827395         4.024175         1.054728
 H         1.295040         4.326694         3.103603
 H         1.108000         2.584233         3.582264
 H         1.666903         3.920332         0.715687
 H         2.062173         2.302708         1.084552
 H         0.026609         2.752830        -0.434546
