19
Iteration:  2425
 O         0.256054         0.134042         0.905937
 C        -0.607945         1.258461         0.866947
 C        -2.050956         1.220277         0.394126
 C        -1.701460         1.854110         1.813342
 C        -1.209962         3.230154         1.531626
 O        -0.520141         3.818688         2.640466
 C         0.738893         3.162202         2.757275
 C         1.275756         2.852846         1.304615
 C        -0.106467         2.633805         0.595830
 H         0.199677        -0.196170         1.795177
 H        -2.470995         1.821522        -0.372769
 H        -2.439459         0.266052         0.398168
 H        -2.112741         1.631741         2.890967
 H        -1.981371         3.852591         0.959510
 H         1.377122         3.865834         3.339646
 H         0.511905         2.073845         3.258804
 H         1.619213         3.735556         0.838381
 H         1.891899         1.914208         1.273196
 H        -0.163907         2.720347        -0.485849
