19
Iteration:  3549
 O         0.081784        -0.015592         0.807860
 C        -0.578833         1.172853         0.770673
 C        -2.050216         1.201083         0.432249
 C        -1.667491         1.829505         1.810011
 C        -1.183476         3.279549         1.516066
 O        -0.612711         3.796811         2.660492
 C         0.762204         3.195383         2.815734
 C         1.346410         3.025302         1.405892
 C        -0.015067         2.632207         0.562436
 H         0.496390         0.051593         1.724217
 H        -2.464009         1.853710        -0.319950
 H        -2.459980         0.211104         0.658591
 H        -2.152124         1.548911         2.769979
 H        -1.982714         4.010167         1.082840
 H         1.492979         3.834261         3.433109
 H         0.768075         2.211461         3.343045
 H         1.630625         3.970014         0.889855
 H         2.025639         2.163918         1.431237
 H         0.027189         3.074951        -0.466238
