19
Iteration:  3497
 O         0.143479         0.090341         0.809460
 C        -0.580256         1.238688         0.826360
 C        -2.082860         1.203089         0.432601
 C        -1.727931         1.774432         1.738386
 C        -1.146689         3.187299         1.543557
 O        -0.512861         3.882947         2.611465
 C         0.684054         3.196572         2.810559
 C         1.278460         2.846254         1.411963
 C        -0.046262         2.681727         0.663841
 H         0.965086         0.378751         1.334864
 H        -2.592797         1.663842        -0.426316
 H        -2.549975         0.192486         0.624255
 H        -2.050079         1.338087         2.756609
 H        -1.944530         3.947086         1.183162
 H         1.489813         3.801284         3.318301
 H         0.436670         2.250747         3.288734
 H         1.794655         3.703136         0.862870
 H         1.970640         2.045745         1.332409
 H         0.098787         3.036553        -0.336264
