19
Iteration:  2789charge 0 multiplicity 1
 O         0.220289         0.099680         0.979320
 C        -0.647118         1.280119         0.809291
 C        -2.060756         1.171784         0.416115
 C        -1.765894         1.847645         1.667679
 C        -1.170040         3.271182         1.565769
 O        -0.538320         3.814618         2.708247
 C         0.790339         3.091829         2.764355
 C         1.273006         2.941506         1.344580
 C        -0.065270         2.615313         0.491103
 H         0.196876         0.000315         1.913333
 H        -2.554595         1.753444        -0.437831
 H        -2.363182         0.048648         0.555419
 H        -2.141519         1.343967         2.579027
 H        -1.877095         4.107967         1.181340
 H         1.576940         3.722317         3.384631
 H         0.531318         2.133012         3.244333
 H         1.722593         3.974854         0.960724
 H         2.170461         2.254815         1.314450
 H        -0.169678         2.866596        -0.599717
