19
Iteration:  3014charge 0 multiplicity 1
 O         0.037335        -0.022325         0.977552
 C        -0.627439         1.176902         0.774629
 C        -2.033519         1.142721         0.292788
 C        -1.716451         1.731731         1.744457
 C        -1.152205         3.222771         1.553683
 O        -0.495366         3.808139         2.683800
 C         0.877296         3.190546         2.779755
 C         1.262114         3.113152         1.323152
 C        -0.004366         2.716783         0.641201
 H         0.110643         0.021079         1.947268
 H        -2.290939         1.941839        -0.414098
 H        -2.678614         0.331209         0.484137
 H        -2.406095         1.217115         2.376056
 H        -1.882511         4.059691         1.059235
 H         1.393041         3.844086         3.486337
 H         0.719063         2.216942         3.234210
 H         1.484075         4.176010         1.013392
 H         2.138601         2.472805         1.101455
 H        -0.265766         3.068212        -0.381183
