19
Iteration:   990
 O        -0.075833         0.033907         1.067165
 C        -0.617729         1.256484         0.873857
 C        -2.058385         1.177817         0.275286
 C        -1.695348         1.733376         1.693377
 C        -1.140223         3.161532         1.566270
 O        -0.510150         3.710078         2.733184
 C         0.924273         3.489043         2.787512
 C         1.266467         2.980834         1.297935
 C        -0.023245         2.583569         0.576557
 H         0.434238        -0.219735         0.300815
 H        -2.533000         1.834281        -0.445093
 H        -2.548134         0.137368         0.439232
 H        -2.192510         1.194110         2.443677
 H        -1.694616         4.057539         1.129268
 H         1.480338         4.331086         3.181501
 H         0.985365         2.771335         3.556112
 H         1.881199         3.736263         0.752277
 H         2.012997         2.265262         1.322667
 H        -0.073661         2.856243        -0.516813
