19
Iteration:  1463charge 0 multiplicity 1
 O         0.271522         0.177002         0.892780
 C        -0.667211         1.238097         0.761167
 C        -2.112523         1.096519         0.441753
 C        -1.728520         1.764184         1.803232
 C        -1.148357         3.297902         1.478510
 O        -0.445169         3.934143         2.564858
 C         0.747871         3.204157         2.880748
 C         1.171010         2.822590         1.447123
 C        -0.058485         2.633953         0.560691
 H        -0.122617        -0.668644         1.095520
 H        -2.653008         1.735524        -0.221054
 H        -2.351219         0.030783         0.550525
 H        -2.057527         1.433586         2.878685
 H        -2.053165         3.950599         1.162850
 H         1.452153         3.788711         3.408495
 H         0.577139         2.226579         3.329722
 H         1.787225         3.578818         0.949035
 H         1.981602         1.951533         1.330229
 H         0.032835         2.983928        -0.484149
