19
Iteration:   856
 O         0.299409         0.186349         0.930087
 C        -0.684488         1.265805         0.880503
 C        -2.091417         1.156257         0.582771
 C        -1.763635         1.940115         1.792667
 C        -1.130432         3.293390         1.458682
 O        -0.516144         3.817415         2.555052
 C         0.637862         3.066014         2.732579
 C         1.376614         2.865542         1.364803
 C        -0.056483         2.607170         0.574742
 H        -0.166525        -0.642621         0.631473
 H        -2.519356         1.741107        -0.229107
 H        -2.575600         0.281588         0.803977
 H        -2.172875         1.423157         2.798992
 H        -1.809635         3.951354         0.873366
 H         1.160798         3.529743         3.603225
 H         0.365158         2.101795         3.119691
 H         1.886597         3.695221         0.913613
 H         2.090277         2.055907         1.374726
 H         0.014767         2.947468        -0.487784
