19
Iteration:  1284charge 0 multiplicity 1
 O         0.212654         0.136487         1.087396
 C        -0.667557         1.216968         0.779599
 C        -2.048298         1.073332         0.499015
 C        -1.714639         1.894182         1.663832
 C        -1.187200         3.361198         1.514034
 O        -0.541285         3.814666         2.677027
 C         0.706233         3.001800         2.767382
 C         1.330344         2.951892         1.298065
 C        -0.015039         2.725735         0.518934
 H        -0.194293        -0.528388         0.593198
 H        -2.656821         1.508528        -0.365137
 H        -2.304644         0.087293         0.701797
 H        -2.065076         1.638479         2.728258
 H        -1.927607         4.024686         1.133434
 H         1.492398         3.571822         3.473312
 H         0.629309         1.958225         3.155193
 H         1.643984         4.038215         0.963084
 H         2.028120         2.171255         1.153304
 H         0.024222         3.082529        -0.445829
