19
Iteration:   395
 O         0.250416         0.049663         1.003591
 C        -0.641046         1.165462         0.894280
 C        -2.019982         1.302999         0.380776
 C        -1.725879         1.849697         1.787217
 C        -1.198271         3.183843         1.500264
 O        -0.538102         3.911214         2.637297
 C         0.793663         3.201010         2.756904
 C         1.206614         2.923452         1.301170
 C        -0.060780         2.544159         0.604678
 H        -0.304490        -0.788908         0.813470
 H        -2.182612         1.971015        -0.538859
 H        -2.608789         0.470340         0.275156
 H        -2.301193         1.435652         2.719443
 H        -1.823993         3.968274         1.056222
 H         1.507809         3.914455         3.298436
 H         0.653110         2.360219         3.466894
 H         1.783438         3.757191         0.965286
 H         1.926255         2.070743         1.305921
 H        -0.039709         2.888587        -0.508129
