19
Iteration:    17charge 0 multiplicity 1
 O         0.075265        -0.043063         1.014117
 C        -0.642184         1.134632         0.855343
 C        -2.077113         1.246917         0.346627
 C        -1.722482         1.731761         1.794001
 C        -1.130981         3.177198         1.470812
 O        -0.577794         3.917678         2.622908
 C         0.843544         3.303485         2.733517
 C         1.273998         3.013484         1.373740
 C         0.025036         2.590923         0.700749
 H         0.676922        -0.068534         0.293582
 H        -2.154886         2.139300        -0.358022
 H        -2.866847         0.452978         0.127356
 H        -2.137891         1.357430         2.786745
 H        -1.822042         3.856038         0.844824
 H         1.380611         4.002430         3.421004
 H         0.708891         2.368006         3.379655
 H         1.780671         3.892368         0.831167
 H         1.851534         2.037543         1.448835
 H         0.035220         3.048261        -0.449815
