19
Iteration:  1650charge 0 multiplicity 1
 O         0.235022         0.116113         1.007779
 C        -0.603052         1.289475         0.832461
 C        -2.070148         1.222698         0.457316
 C        -1.652494         1.816144         1.834990
 C        -1.213919         3.203049         1.506524
 O        -0.534427         3.845547         2.601705
 C         0.672994         3.145545         2.727027
 C         1.272542         2.853731         1.353828
 C        -0.033948         2.678900         0.568091
 H         0.002648        -0.628676         0.414556
 H        -2.270786         1.989045        -0.283994
 H        -2.528881         0.194583         0.378760
 H        -2.246327         1.567628         2.716488
 H        -1.939783         3.953399         1.038341
 H         1.312316         3.779771         3.292780
 H         0.398595         2.174772         3.384533
 H         1.794641         3.737938         0.987219
 H         2.049978         1.994052         1.292673
 H         0.013045         2.808824        -0.523784
