19
Iteration:  3206charge 0 multiplicity 1
 O         0.132577         0.042336         0.892245
 C        -0.666924         1.210540         0.746354
 C        -2.036537         1.227910         0.303192
 C        -1.745215         1.797821         1.786905
 C        -1.130191         3.141464         1.589301
 O        -0.564807         3.797944         2.682178
 C         0.821160         3.413187         2.798014
 C         1.206063         2.859271         1.416260
 C        -0.037066         2.601210         0.640860
 H         1.040209         0.264290         1.111275
 H        -2.465646         1.959784        -0.442174
 H        -2.502592         0.252204         0.181821
 H        -2.262288         1.493827         2.636266
 H        -1.817535         3.992195         1.121975
 H         1.438241         4.116431         3.242585
 H         1.065480         2.563754         3.401940
 H         1.839644         3.487533         0.907802
 H         1.884844         1.945987         1.460007
 H         0.004991         2.923244        -0.375109
