19
Iteration:  3535
 O         0.114983         0.004668         0.821057
 C        -0.612903         1.260264         0.803881
 C        -2.041597         1.228622         0.477888
 C        -1.611219         1.799545         1.757553
 C        -1.132925         3.195195         1.532346
 O        -0.541884         3.876178         2.659657
 C         0.694248         3.169646         2.778331
 C         1.167549         2.953443         1.353872
 C         0.006729         2.648715         0.648644
 H         0.581954        -0.240864         1.629808
 H        -2.355233         1.898498        -0.385852
 H        -2.533734         0.304565         0.464570
 H        -1.953195         1.371677         2.623486
 H        -1.771276         3.848080         0.982079
 H         1.204168         3.832589         3.441990
 H         0.485100         2.228927         3.318547
 H         1.627961         3.909576         1.119551
 H         2.102467         2.227684         1.170677
 H         0.054363         2.926603        -0.484507
