19
Iteration:   200charge 0 multiplicity 1
 O         0.152566         0.114508         1.152715
 C        -0.674642         1.195964         0.902106
 C        -1.999063         1.155480         0.261043
 C        -1.759881         1.809410         1.677209
 C        -1.216481         3.209230         1.534417
 O        -0.439074         3.828975         2.712869
 C         0.847217         3.186392         2.793548
 C         1.261420         3.004140         1.220802
 C        -0.056426         2.645521         0.558828
 H        -0.547414        -0.636132         1.137367
 H        -2.094816         1.895898        -0.548952
 H        -2.559465         0.135299         0.301570
 H        -2.566145         1.517651         2.485551
 H        -2.025061         3.902219         1.134931
 H         1.536255         3.897843         3.236184
 H         0.811105         2.162133         3.320949
 H         1.574973         4.049355         0.787726
 H         2.026594         2.132283         1.262252
 H        -0.134807         2.843903        -0.525628
