19
Iteration:  4834
 O         0.072147         0.037501         0.874038
 C        -0.592038         1.197612         0.776144
 C        -2.023692         1.209007         0.340511
 C        -1.700086         1.780751         1.754505
 C        -1.197904         3.230847         1.538755
 O        -0.543826         3.819239         2.667918
 C         0.774937         3.186358         2.858202
 C         1.229747         2.967865         1.412035
 C        -0.027252         2.672078         0.579499
 H         0.784296         0.010964         1.565224
 H        -2.437579         1.905180        -0.398993
 H        -2.360966         0.165479         0.369003
 H        -2.166961         1.475747         2.627416
 H        -1.935897         3.957541         1.158937
 H         1.376902         3.911960         3.532685
 H         0.661197         2.186579         3.291230
 H         1.781466         3.864055         0.989027
 H         2.138292         2.248241         1.330062
 H         0.386114         3.094262        -0.449803
