19
Iteration:  3868charge 0 multiplicity 1
 O         0.203991         0.122545         0.906798
 C        -0.680389         1.276079         0.807036
 C        -2.157206         1.069432         0.423036
 C        -1.757550         1.890518         1.713044
 C        -1.105845         3.269259         1.523291
 O        -0.500658         3.751064         2.672349
 C         0.773418         3.079416         2.844166
 C         1.253939         2.950027         1.354479
 C        -0.017702         2.677132         0.571182
 H         0.971752         0.344626         1.441150
 H        -2.552775         1.591131        -0.398055
 H        -2.571826        -0.004644         0.407722
 H        -2.294781         1.666468         2.658700
 H        -1.775441         4.026914         1.132330
 H         1.355758         3.770240         3.390359
 H         0.525421         2.117931         3.408894
 H         1.606087         3.929580         0.982248
 H         2.154766         2.266301         1.174453
 H        -0.122574         3.232806        -0.494331
