19
Iteration:  3400charge 0 multiplicity 1
 O         0.087219        -0.069223         0.889888
 C        -0.551959         1.147183         0.836042
 C        -1.997701         1.269380         0.345797
 C        -1.726173         1.782907         1.779553
 C        -1.200616         3.219757         1.502212
 O        -0.487416         3.847315         2.742770
 C         0.758000         3.219161         2.813009
 C         1.222307         3.034691         1.340691
 C        -0.038211         2.669636         0.563606
 H         0.392128        -0.170704         1.840260
 H        -2.283187         2.019787        -0.452323
 H        -2.594827         0.419336         0.085134
 H        -2.241652         1.419433         2.697242
 H        -1.989272         3.760111         1.126741
 H         1.364159         3.866755         3.507682
 H         0.827153         2.177301         3.076730
 H         1.719386         3.979789         0.964720
 H         2.043457         2.294305         1.120458
 H        -0.168188         3.132179        -0.453323
