19
Iteration:  4909
 O         0.055588         0.069063         0.885063
 C        -0.612207         1.215141         0.778442
 C        -1.986243         1.199600         0.292392
 C        -1.707214         1.677838         1.755251
 C        -1.208364         3.242171         1.562909
 O        -0.531746         3.832392         2.718474
 C         0.783516         3.262749         2.826310
 C         1.287310         2.959660         1.393300
 C        -0.060996         2.665665         0.587076
 H         0.424172         0.040503         1.748415
 H        -2.431318         1.961291        -0.451242
 H        -2.440235         0.205185         0.100802
 H        -2.172383         1.172563         2.542474
 H        -1.892593         4.049569         1.150936
 H         1.529026         4.007691         3.385817
 H         0.818687         2.272231         3.360868
 H         1.998467         3.763183         1.105416
 H         1.931080         1.994493         1.363154
 H         0.150671         2.902022        -0.507076
