19
Iteration:  4746
 O         0.103930         0.074829         0.913216
 C        -0.660802         1.229970         0.796026
 C        -2.013487         1.232546         0.373821
 C        -1.757292         1.762750         1.679401
 C        -1.150278         3.235489         1.483049
 O        -0.494229         3.805205         2.750544
 C         0.716865         3.142168         2.836960
 C         1.213860         3.007310         1.424371
 C         0.022566         2.615330         0.506246
 H         0.812740         0.235508         1.574168
 H        -2.539599         1.557435        -0.486253
 H        -2.397751         0.156490         0.537936
 H        -2.064222         1.319964         2.579109
 H        -1.761671         4.107413         1.197455
 H         1.347187         3.924732         3.439265
 H         0.752737         2.188494         3.409369
 H         1.699501         3.982162         1.072439
 H         2.136957         2.255983         1.290780
 H         0.048814         2.947922        -0.628990
