19
Iteration:  2796
 O         0.211956         0.153077         0.958232
 C        -0.629035         1.264639         0.807188
 C        -2.097891         1.195277         0.396852
 C        -1.760790         1.805890         1.728540
 C        -1.153671         3.209243         1.499526
 O        -0.507890         3.778183         2.688619
 C         0.799319         3.141981         2.756044
 C         1.245254         2.959396         1.370983
 C        -0.071214         2.608693         0.537197
 H         0.242118         0.108149         1.941015
 H        -2.348172         1.721311        -0.522382
 H        -2.698307         0.200263         0.532144
 H        -2.171263         1.602081         2.733453
 H        -1.821646         3.861857         1.033359
 H         1.361943         3.697323         3.450373
 H         0.765200         2.149753         3.316055
 H         1.723762         3.801946         0.902012
 H         1.996751         2.170412         1.395344
 H        -0.043345         3.031839        -0.485490
