19
Iteration:  4587charge 0 multiplicity 1
 O         0.120270         0.064032         0.790086
 C        -0.634480         1.201088         0.860790
 C        -2.019151         1.185927         0.406154
 C        -1.764078         1.843492         1.781501
 C        -1.182370         3.155696         1.490174
 O        -0.505345         3.852565         2.651449
 C         0.706439         3.209616         2.867997
 C         1.296930         2.963563         1.452434
 C        -0.030963         2.622334         0.568623
 H         0.977822         0.254854         1.127808
 H        -2.498928         1.614325        -0.497035
 H        -2.425571         0.021404         0.269673
 H        -2.195478         1.549180         2.740489
 H        -1.801315         3.995999         1.085769
 H         1.363669         3.906467         3.504388
 H         0.601090         2.195669         3.333014
 H         1.680904         3.957293         1.168524
 H         2.050058         2.273237         1.394261
 H         0.188859         2.849801        -0.520238
