19
Iteration:  4134charge 0 multiplicity 1
 O         0.126756         0.068955         0.864976
 C        -0.584095         1.243954         0.860729
 C        -2.001163         1.225149         0.319321
 C        -1.721758         1.833622         1.760426
 C        -1.254229         3.223575         1.579049
 O        -0.551606         3.749949         2.708795
 C         0.808114         3.228023         2.751787
 C         1.264255         2.922953         1.310236
 C        -0.034656         2.605318         0.664368
 H         0.591337         0.112565         1.675277
 H        -2.243978         1.844398        -0.473092
 H        -2.621831         0.353727         0.424844
 H        -2.266465         1.356081         2.592442
 H        -2.001367         3.814920         1.039237
 H         1.272584         3.951959         3.454056
 H         0.758535         2.272936         3.243945
 H         1.710932         3.892128         0.783253
 H         2.081751         2.186261         1.259751
 H         0.050038         3.181902        -0.326263
