19
Iteration:  1240charge 0 multiplicity 1
 O         0.218076         0.107637         1.002680
 C        -0.706863         1.258405         0.846011
 C        -2.051130         1.213193         0.393440
 C        -1.701028         1.766816         1.786749
 C        -1.227484         3.228870         1.548912
 O        -0.538731         3.900677         2.578997
 C         0.811309         3.167055         2.773870
 C         1.277035         2.873214         1.361375
 C        -0.061832         2.609366         0.612823
 H         0.572353        -0.154032         0.180091
 H        -2.327100         1.896202        -0.430590
 H        -2.608190         0.376848         0.524994
 H        -2.115047         1.484096         2.792867
 H        -1.931278         3.880831         1.072932
 H         1.470052         3.658944         3.557849
 H         0.589084         2.231494         3.292563
 H         1.759305         3.753446         0.795795
 H         1.904824         2.012866         1.253248
 H        -0.010320         2.793819        -0.412504
