19
Iteration:  3704
 O         0.142104         0.109492         0.876762
 C        -0.647580         1.244043         0.825103
 C        -2.029689         1.143932         0.407913
 C        -1.750766         1.828703         1.723358
 C        -1.140218         3.211812         1.578512
 O        -0.527609         3.871442         2.624571
 C         0.739096         3.139182         2.830067
 C         1.278805         2.909482         1.394814
 C        -0.090611         2.637978         0.648150
 H         1.096209         0.316448         0.959552
 H        -2.224016         1.806401        -0.416841
 H        -2.500769         0.243118         0.374946
 H        -2.070316         1.453448         2.636746
 H        -1.820258         3.950452         1.133750
 H         1.436487         3.751141         3.419883
 H         0.517044         2.168504         3.273993
 H         1.815003         3.750941         0.900737
 H         1.840598         2.041705         1.000189
 H         0.016327         2.908239        -0.390105
