19
Iteration:  2876charge 0 multiplicity 1
 O         0.018243        -0.029210         0.754360
 C        -0.592092         1.209847         0.794711
 C        -2.041304         1.205005         0.459625
 C        -1.741311         1.762913         1.785700
 C        -1.136972         3.141666         1.517020
 O        -0.525120         3.845595         2.611379
 C         0.781161         3.331785         2.856910
 C         1.267396         3.047034         1.425445
 C         0.048347         2.546129         0.650042
 H         0.645827         0.204637         1.484092
 H        -2.538424         2.081772        -0.205744
 H        -2.512745         0.259016         0.355882
 H        -2.191388         1.453501         2.702602
 H        -1.869274         3.796957         1.070731
 H         1.417775         4.140137         3.357321
 H         0.581434         2.366321         3.394489
 H         1.595680         4.054970         0.951177
 H         2.012996         2.237532         1.393884
 H         0.195731         2.867380        -0.430834
