19
Iteration:  2236charge 0 multiplicity 1
 O         0.198374         0.119744         0.971770
 C        -0.651186         1.233823         0.899282
 C        -2.012087         1.145148         0.363078
 C        -1.795520         1.750015         1.708737
 C        -1.185914         3.224291         1.532869
 O        -0.473481         3.912421         2.663285
 C         0.786707         3.188268         2.808365
 C         1.247382         2.990037         1.313256
 C        -0.036598         2.562533         0.592526
 H        -0.273272        -0.643836         0.497728
 H        -2.191183         1.852242        -0.450338
 H        -2.676517         0.339949         0.477559
 H        -2.229532         1.208779         2.614012
 H        -1.886749         4.067135         1.268302
 H         1.506114         3.674908         3.518567
 H         0.679996         2.162957         3.378268
 H         1.555437         3.965276         0.830724
 H         2.137104         2.356456         1.361218
 H        -0.192941         2.843763        -0.464105
