19
Iteration:  4043charge 0 multiplicity 1
 O         0.162506         0.061072         0.770978
 C        -0.620627         1.222100         0.808742
 C        -2.055863         1.205040         0.418420
 C        -1.620493         1.840661         1.844806
 C        -1.175615         3.219473         1.519961
 O        -0.516069         3.856202         2.637747
 C         0.690397         3.163379         2.848191
 C         1.177695         2.955230         1.424421
 C        -0.003140         2.632622         0.525285
 H         0.532809        -0.102887         1.642376
 H        -2.422997         1.805528        -0.448410
 H        -2.423732         0.143540         0.693577
 H        -2.142635         1.279061         2.705023
 H        -1.827568         4.033426         1.235709
 H         1.345089         3.685156         3.470669
 H         0.530407         2.209433         3.376058
 H         1.728316         3.831564         0.990333
 H         1.909670         2.093010         1.421043
 H        -0.027077         2.952942        -0.507955
