19
Iteration:   536charge 0 multiplicity 1
 O         0.116334         0.078895         1.070945
 C        -0.630561         1.253351         0.881389
 C        -2.106325         1.228956         0.439762
 C        -1.675359         1.832858         1.718012
 C        -1.178301         3.217328         1.467135
 O        -0.589716         3.767746         2.637260
 C         0.788323         3.244993         2.728644
 C         1.304179         2.889762         1.349378
 C         0.019565         2.640054         0.568157
 H         0.360850        -0.331236         0.163627
 H        -2.580733         1.802426        -0.334586
 H        -2.523506         0.281110         0.614936
 H        -1.868070         1.474631         2.715487
 H        -1.946623         3.917716         1.086910
 H         1.491575         3.965255         3.280125
 H         0.702457         2.369537         3.383641
 H         1.771863         3.759338         0.953994
 H         1.975793         2.042715         1.184430
 H         0.181451         2.950689        -0.395621
