19
Iteration:   857charge 0 multiplicity 1
 O         0.297894         0.186038         0.924717
 C        -0.680821         1.274918         0.886982
 C        -2.090065         1.157935         0.586943
 C        -1.767114         1.932039         1.799652
 C        -1.118593         3.290403         1.450299
 O        -0.521161         3.815258         2.549724
 C         0.642555         3.064593         2.730406
 C         1.381982         2.859148         1.372191
 C        -0.063954         2.608408         0.563386
 H        -0.133863        -0.618352         0.630980
 H        -2.506171         1.765405        -0.214567
 H        -2.609172         0.244808         0.835601
 H        -2.168775         1.464550         2.787447
 H        -1.829721         3.984626         0.895122
 H         1.135032         3.548138         3.595927
 H         0.335080         2.064798         3.123300
 H         1.886194         3.752707         0.928885
 H         2.066485         2.050721         1.412574
 H         0.011906         2.948124        -0.460371
