19
Iteration:  1791
 O         0.156793         0.103373         1.021615
 C        -0.582935         1.251058         0.791103
 C        -2.104687         1.207810         0.464962
 C        -1.660477         1.843622         1.736151
 C        -1.172663         3.267434         1.509565
 O        -0.572598         3.768133         2.670041
 C         0.700534         3.229276         2.752773
 C         1.247994         2.912514         1.357434
 C         0.010590         2.588725         0.569872
 H         0.483520        -0.108917         0.136136
 H        -2.675579         1.932921        -0.223332
 H        -2.429550        -0.006279         0.570793
 H        -2.147975         1.554203         2.700042
 H        -1.789834         3.976427         0.925051
 H         1.322490         3.764682         3.414083
 H         0.836767         2.173645         3.136024
 H         1.823259         3.804558         0.984785
 H         2.078835         2.080790         1.422145
 H         0.140165         2.747229        -0.500214
