19
Iteration:  1708
 O         0.154720        -0.021935         0.895612
 C        -0.580946         1.210519         0.824463
 C        -2.029171         1.272140         0.464758
 C        -1.738345         1.853494         1.792209
 C        -1.198416         3.171671         1.518832
 O        -0.571246         3.820309         2.592330
 C         0.790040         3.305033         2.805580
 C         1.275419         2.979420         1.389842
 C         0.010307         2.605569         0.608303
 H        -0.423410        -0.560285         0.366006
 H        -2.481276         1.788017        -0.404272
 H        -2.342306         0.216107         0.555868
 H        -2.032690         1.345467         2.703482
 H        -1.871837         4.003981         1.061322
 H         1.188539         4.115055         3.470864
 H         0.765690         2.368005         3.484628
 H         1.828838         3.939740         0.953347
 H         1.871043         2.040557         1.486518
 H         0.072171         2.662769        -0.525516
