19
Iteration:  3708
 O         0.155252         0.089556         0.884150
 C        -0.611165         1.225063         0.814847
 C        -2.041283         1.175260         0.398134
 C        -1.788774         1.817443         1.718559
 C        -1.156673         3.235551         1.625734
 O        -0.516043         3.863866         2.610394
 C         0.772660         3.154807         2.831887
 C         1.269947         2.880334         1.386230
 C        -0.071223         2.659197         0.600975
 H         1.084616         0.334552         0.907327
 H        -2.321947         1.835119        -0.445976
 H        -2.552981         0.109631         0.524160
 H        -2.211037         1.297729         2.654036
 H        -1.830146         3.960836         1.133071
 H         1.279544         3.849775         3.499275
 H         0.492506         2.242948         3.375473
 H         1.764415         3.761352         1.002450
 H         1.916788         2.069578         1.155979
 H        -0.079961         2.978019        -0.429226
