19
Iteration:   556
 O         0.042500         0.120002         1.004003
 C        -0.623744         1.240687         0.770349
 C        -2.068466         1.164847         0.485785
 C        -1.686688         1.792327         1.799734
 C        -1.087094         3.233403         1.420938
 O        -0.548050         3.697177         2.632828
 C         0.778415         3.324227         2.836346
 C         1.260900         2.951417         1.376270
 C        -0.016426         2.600519         0.502733
 H        -0.179697        -0.699088         0.521083
 H        -2.502838         1.765187        -0.376488
 H        -2.399476         0.211309         0.472070
 H        -2.073581         1.607218         2.865952
 H        -1.578229         4.113205         0.978543
 H         1.410093         4.185126         3.252619
 H         1.004862         2.571940         3.617125
 H         1.831947         3.859362         1.000054
 H         1.993363         2.157854         1.489794
 H         0.147663         2.926228        -0.507666
