19
Iteration:   103charge 0 multiplicity 1
 O         0.193689         0.129155         0.972619
 C        -0.637940         1.238000         0.877326
 C        -2.054837         1.161118         0.380704
 C        -1.638220         1.782432         1.808168
 C        -1.101517         3.297831         1.462738
 O        -0.489943         3.900365         2.539627
 C         0.683213         3.242636         2.875995
 C         1.145188         2.806728         1.382069
 C        -0.055521         2.567538         0.618808
 H        -0.241812        -0.560109         0.360765
 H        -2.423546         1.871536        -0.386095
 H        -2.405937         0.047739         0.427625
 H        -1.858054         1.409637         2.886562
 H        -1.734060         4.044754         0.872133
 H         1.281489         3.992199         3.337753
 H         0.540068         2.319415         3.515525
 H         1.822693         3.681424         0.961995
 H         1.970633         2.019967         1.187745
 H        -0.039387         3.017227        -0.419259
