19
Iteration:  3674
 O         0.148196         0.050764         0.875003
 C        -0.578609         1.266204         0.797217
 C        -2.057127         1.206810         0.507420
 C        -1.703713         1.879272         1.729024
 C        -1.150092         3.244216         1.553849
 O        -0.559742         3.785142         2.627195
 C         0.686229         3.070192         2.837828
 C         1.277520         2.995827         1.370242
 C        -0.015201         2.641355         0.476980
 H         0.699138         0.037004         1.747479
 H        -2.452417         1.790917        -0.347880
 H        -2.549539         0.242382         0.615585
 H        -2.074988         1.459649         2.645574
 H        -1.862882         4.021289         1.243541
 H         1.328463         3.626261         3.489156
 H         0.537465         2.105092         3.323642
 H         1.582243         4.011822         1.136527
 H         2.000328         2.302160         1.146831
 H         0.120615         2.846809        -0.508406
