19
Iteration:  1329charge 0 multiplicity 1
 O         0.243965         0.105219         1.143973
 C        -0.570632         1.210086         0.859013
 C        -2.131929         1.282347         0.362985
 C        -1.810005         1.825344         1.748838
 C        -1.205332         3.228401         1.557938
 O        -0.536199         3.747034         2.688727
 C         0.771577         3.188912         2.690375
 C         1.307891         2.915957         1.256735
 C        -0.027885         2.620917         0.571542
 H         0.280014        -0.337195         0.309397
 H        -2.419436         1.930967        -0.504007
 H        -2.671641         0.372824         0.231233
 H        -2.308276         1.407237         2.574063
 H        -1.857978         4.008918         1.099979
 H         1.476653         3.973244         3.254921
 H         0.830960         2.229017         3.348379
 H         1.554419         4.025433         1.001075
 H         2.055545         2.113421         1.085181
 H        -0.012378         2.840310        -0.471614
