19
Iteration:  2628charge 0 multiplicity 1
 O         0.161070         0.057499         0.740926
 C        -0.573196         1.230796         0.833163
 C        -2.044682         1.210537         0.493930
 C        -1.678526         1.756912         1.819011
 C        -1.160784         3.156918         1.573138
 O        -0.544367         4.024153         2.583511
 C         0.695298         3.221820         2.827379
 C         1.242622         2.890532         1.432952
 C        -0.014944         2.584796         0.584605
 H        -0.410389        -0.582024         1.186556
 H        -2.417682         1.774078        -0.309747
 H        -2.379635         0.133553         0.498558
 H        -1.949488         1.620837         2.911921
 H        -1.808503         3.839091         1.056158
 H         1.537273         3.821475         3.301494
 H         0.522386         2.138540         3.275996
 H         1.698915         3.713887         0.908331
 H         2.017930         2.152413         1.475339
 H        -0.011593         2.928390        -0.465834
