19
Iteration:  1158charge 0 multiplicity 1
 O         0.131052        -0.014564         0.861555
 C        -0.637411         1.156361         0.820428
 C        -2.055583         1.227328         0.377171
 C        -1.676571         1.762091         1.764089
 C        -1.158309         3.229985         1.568082
 O        -0.555783         3.826916         2.667098
 C         0.821051         3.452821         2.781167
 C         1.275728         2.958091         1.437689
 C        -0.045581         2.555284         0.664586
 H        -0.385239        -0.648800         0.372149
 H        -2.265381         2.032892        -0.431120
 H        -2.731431         0.290964         0.429225
 H        -2.121081         1.412523         2.627662
 H        -1.894943         3.918917         1.053200
 H         1.450696         4.316867         2.988571
 H         0.892707         2.595251         3.480859
 H         1.789877         3.705939         0.873474
 H         2.008215         2.052483         1.460292
 H         0.027900         2.686409        -0.458204
