19
Iteration:  1907
 O         0.117963         0.017585         1.092602
 C        -0.611745         1.269501         0.786936
 C        -2.065478         1.184605         0.336621
 C        -1.764417         1.792066         1.681518
 C        -1.251105         3.221885         1.582243
 O        -0.495698         3.770053         2.748659
 C         0.851921         3.287695         2.663029
 C         1.287290         2.913518         1.367496
 C        -0.027821         2.712727         0.570906
 H         0.351639        -0.348728         0.192916
 H        -2.340272         1.656821        -0.563695
 H        -2.479270         0.192849         0.547885
 H        -2.278599         1.321019         2.575457
 H        -1.966769         4.027960         1.286167
 H         1.371667         4.115735         3.289907
 H         0.922107         2.515420         3.465300
 H         1.935020         3.664752         0.859519
 H         1.777617         2.003911         1.317014
 H        -0.020462         3.128919        -0.478580
