19
Iteration:  1200
 O        -0.021232         0.023574         0.932123
 C        -0.608540         1.166736         0.768968
 C        -2.066787         1.198516         0.414607
 C        -1.640710         1.777400         1.784675
 C        -1.206124         3.196539         1.466680
 O        -0.580378         3.830982         2.686994
 C         0.881162         3.413500         2.815068
 C         1.281939         2.936700         1.397186
 C        -0.015099         2.563470         0.638711
 H         0.502715        -0.105850         0.045710
 H        -2.515020         1.727217        -0.469402
 H        -2.532130         0.206065         0.419377
 H        -1.846426         1.207486         2.627615
 H        -1.965452         3.953338         1.069672
 H         1.393515         4.268007         3.238332
 H         1.101110         2.611563         3.649810
 H         1.878195         3.685412         0.843108
 H         2.086980         2.169956         1.484065
 H         0.253899         3.032050        -0.431039
