19
Iteration:  1927
 O         0.030411         0.049887         1.075568
 C        -0.621353         1.271218         0.833536
 C        -1.955259         1.211498         0.280240
 C        -1.644384         1.720227         1.778077
 C        -1.137937         3.199572         1.571440
 O        -0.514621         3.816301         2.654341
 C         0.814817         3.258627         2.820358
 C         1.203210         2.948271         1.237445
 C        -0.103910         2.630705         0.616013
 H         0.410393        -0.341268         0.212920
 H        -2.283940         2.098620        -0.348627
 H        -2.533357         0.334803         0.168142
 H        -2.082444         1.316190         2.770449
 H        -1.816767         3.979216         1.069408
 H         1.498939         4.072353         3.390079
 H         0.746288         2.427668         3.636892
 H         1.743003         3.836681         0.875149
 H         1.901772         2.101564         1.188966
 H        -0.248107         2.896631        -0.471841
