19
Iteration:  4126
 O         0.135953         0.058351         0.890876
 C        -0.596601         1.208596         0.831533
 C        -2.001681         1.222910         0.331732
 C        -1.710580         1.828180         1.721916
 C        -1.216345         3.209637         1.594782
 O        -0.525306         3.760225         2.713737
 C         0.746462         3.264015         2.772565
 C         1.253459         2.937537         1.351814
 C        -0.066951         2.638549         0.610750
 H         0.830367        -0.007130         1.528349
 H        -2.186549         1.991657        -0.417499
 H        -2.671156         0.258174         0.413146
 H        -2.201923         1.454952         2.518249
 H        -1.992751         4.027425         1.248325
 H         1.546575         3.844248         3.450344
 H         0.750368         2.222646         3.237440
 H         1.733138         3.773836         0.794742
 H         1.971305         2.082415         1.327567
 H        -0.192614         3.004125        -0.549489
