19
Iteration:   928charge 0 multiplicity 1
 O         0.087827         0.045794         0.938683
 C        -0.612350         1.233905         0.831758
 C        -2.036324         1.241735         0.427890
 C        -1.702553         1.730545         1.791740
 C        -1.160297         3.223440         1.577449
 O        -0.519944         3.865710         2.558886
 C         0.801042         3.360852         2.774922
 C         1.257824         2.847210         1.401845
 C        -0.038370         2.583049         0.631326
 H         0.003527        -0.366034         0.094970
 H        -2.481996         1.964169        -0.376181
 H        -2.518625         0.218210         0.456246
 H        -1.979298         1.269527         2.791979
 H        -1.891823         3.872240         0.984380
 H         1.492762         4.152069         3.173510
 H         0.726230         2.473298         3.583887
 H         1.758805         3.754085         0.908083
 H         2.063030         1.972437         1.425824
 H        -0.113051         2.924086        -0.435804
