19
Iteration:  2857
 O         0.046814        -0.076385         0.801988
 C        -0.647292         1.191566         0.825103
 C        -2.078773         1.139249         0.331164
 C        -1.735454         1.750546         1.736604
 C        -1.180772         3.252604         1.570833
 O        -0.515997         3.896668         2.660909
 C         0.836268         3.330460         2.886436
 C         1.316439         2.963632         1.419569
 C        -0.046684         2.657192         0.619912
 H         0.953260        -0.240698         1.238373
 H        -2.438038         1.576029        -0.612711
 H        -2.457146         0.217479         0.492440
 H        -2.109414         1.325304         2.672311
 H        -1.867641         4.059761         1.079665
 H         1.317066         4.303418         3.211664
 H         0.986012         2.459216         3.519678
 H         1.656889         3.957408         1.063117
 H         2.205036         2.257180         1.463196
 H        -0.059021         2.998234        -0.406754
