19
Iteration:  3740charge 0 multiplicity 1
 O         0.095953         0.083378         0.841169
 C        -0.623542         1.190725         0.810183
 C        -2.078984         1.188414         0.383719
 C        -1.693723         1.786436         1.724325
 C        -1.115645         3.237091         1.549056
 O        -0.576206         3.823470         2.697630
 C         0.833561         3.281432         2.837440
 C         1.231332         2.874377         1.370809
 C        -0.042927         2.615222         0.607396
 H         0.961346         0.321822         1.211952
 H        -2.383288         1.850834        -0.431738
 H        -2.695969         0.206379         0.357661
 H        -1.961328         1.312896         2.732595
 H        -1.764160         3.934836         0.982580
 H         1.243288         4.031765         3.457700
 H         0.751504         2.418746         3.476131
 H         1.723861         3.760275         0.988740
 H         1.923044         2.082568         1.359936
 H         0.012230         2.948400        -0.348037
