19
Iteration:   465
 O         0.166091         0.086430         1.153888
 C        -0.594883         1.288833         0.802699
 C        -2.146351         1.199398         0.454146
 C        -1.713438         1.844413         1.695507
 C        -1.164360         3.238701         1.439839
 O        -0.612375         3.759838         2.719774
 C         0.763138         3.135104         2.696782
 C         1.337037         2.927840         1.291636
 C         0.035498         2.717335         0.575249
 H         0.401434        -0.518718         0.349860
 H        -2.535730         1.628906        -0.459944
 H        -2.742069         0.198431         0.800182
 H        -1.943716         1.809168         2.737826
 H        -1.841436         3.887091         0.874166
 H         1.317524         3.754230         3.331310
 H         0.760590         2.159328         3.271211
 H         1.863974         3.821615         0.746278
 H         1.995222         2.031331         1.267984
 H        -0.082745         2.938568        -0.549378
