19
Iteration:  3214
 O         0.143333         0.021127         0.898865
 C        -0.646505         1.149204         0.769291
 C        -2.047332         1.267934         0.313591
 C        -1.749891         1.755846         1.733034
 C        -1.173125         3.167886         1.578684
 O        -0.575317         3.814055         2.717349
 C         0.863192         3.369129         2.800193
 C         1.244592         2.836282         1.400220
 C        -0.045486         2.636030         0.655043
 H         1.085863         0.253935         1.038357
 H        -2.131871         1.849034        -0.588621
 H        -2.898259         0.495532         0.473602
 H        -2.430816         1.428580         2.506622
 H        -1.799397         3.966928         1.031395
 H         1.389756         4.334236         2.973113
 H         0.962685         2.740076         3.701832
 H         1.789806         3.699574         0.890500
 H         2.001396         2.040298         1.313836
 H        -0.154706         3.095253        -0.390223
