19
Iteration:  2967charge 0 multiplicity 1
 O         0.194805         0.118670         0.929900
 C        -0.585994         1.199407         0.826606
 C        -2.062500         1.237988         0.457525
 C        -1.745393         1.924643         1.735111
 C        -1.111689         3.186179         1.486311
 O        -0.565802         3.734177         2.653923
 C         0.728917         3.132365         2.777507
 C         1.221860         2.878085         1.349971
 C        -0.070399         2.676431         0.585713
 H         1.076738         0.422064         1.100635
 H        -2.274743         1.680269        -0.410908
 H        -2.622680         0.258766         0.719696
 H        -2.148638         1.748295         2.782019
 H        -1.771727         3.987837         1.139633
 H         1.264442         3.922738         3.268558
 H         0.626971         2.266794         3.414671
 H         1.699453         3.734288         0.957141
 H         1.929486         1.998434         1.298957
 H        -0.091141         2.974565        -0.432744
