19
Iteration:  2581
 O         0.223789         0.159453         0.947306
 C        -0.682798         1.215953         0.760564
 C        -2.127244         1.173793         0.527365
 C        -1.689935         1.801423         1.819794
 C        -1.167604         3.290949         1.452342
 O        -0.583913         3.866704         2.662012
 C         0.761256         3.195111         2.750449
 C         1.250354         2.823309         1.415971
 C         0.005469         2.581782         0.557973
 H         0.647768        -0.123249         0.071592
 H        -2.651818         1.792274        -0.107969
 H        -2.506382         0.184587         0.687744
 H        -1.911724         1.347450         2.724985
 H        -1.926356         4.030140         0.980868
 H         1.528171         3.962486         3.171532
 H         0.654119         2.232450         3.354723
 H         1.838124         3.675979         0.951826
 H         1.900874         1.980540         1.266264
 H         0.244339         2.980901        -0.451626
