19
Iteration:  3892
 O         0.126083         0.088414         0.911280
 C        -0.586257         1.292473         0.821435
 C        -2.020581         1.210360         0.407385
 C        -1.694143         1.806752         1.731195
 C        -1.220672         3.263885         1.533143
 O        -0.488371         3.775226         2.677504
 C         0.717616         3.061009         2.769063
 C         1.230693         2.992188         1.325357
 C        -0.047951         2.643415         0.610558
 H         0.634976         0.119166         1.716946
 H        -2.362090         1.767106        -0.393234
 H        -2.429840         0.161465         0.395678
 H        -1.869325         1.568223         2.866569
 H        -1.900384         4.053465         1.201522
 H         1.360853         3.651586         3.373679
 H         0.496185         2.066783         3.245668
 H         1.699452         3.905430         0.884129
 H         1.990141         2.221180         1.257290
 H        -0.116555         2.891450        -0.543786
