19
Iteration:  2892charge 0 multiplicity 1
 O         0.073855        -0.009344         0.750285
 C        -0.621712         1.166138         0.915208
 C        -2.100051         1.308692         0.417805
 C        -1.566832         1.807023         1.846811
 C        -1.126771         3.165169         1.480011
 O        -0.608691         3.860638         2.657597
 C         0.691087         3.265270         2.791705
 C         1.310614         2.978728         1.387423
 C         0.020724         2.593396         0.590635
 H         0.653647        -0.274610         1.551462
 H        -2.262824         1.843722        -0.414153
 H        -2.590956         0.272222         0.541517
 H        -2.002858         1.297328         2.773565
 H        -1.864199         3.922990         0.934873
 H         1.251396         3.929230         3.428585
 H         0.527216         2.339264         3.401316
 H         1.621162         3.841925         0.878269
 H         2.174140         2.260106         1.416431
 H         0.014526         2.998834        -0.393964
