19
Iteration:   909
 O         0.172748         0.035686         0.937158
 C        -0.679063         1.227076         0.761785
 C        -2.160832         1.089823         0.466444
 C        -1.596733         1.795299         1.775474
 C        -1.199168         3.213943         1.520284
 O        -0.456613         4.005017         2.624932
 C         0.747405         3.223262         2.819449
 C         1.276848         2.899735         1.404097
 C        -0.021444         2.691169         0.547757
 H        -0.146614        -0.710073         0.387368
 H        -2.485091         1.736680        -0.343243
 H        -2.525878         0.158685         0.539807
 H        -2.129075         1.457442         2.766070
 H        -1.969161         3.772331         1.071433
 H         1.480084         3.831385         3.399842
 H         0.456115         2.361748         3.355794
 H         2.009321         3.543362         1.051965
 H         1.624520         1.860993         1.562159
 H         0.083680         3.129146        -0.520676
