19
Iteration:  4158
 O         0.116251         0.079291         0.883141
 C        -0.562409         1.252027         0.872533
 C        -2.114850         1.164472         0.363076
 C        -1.781940         1.799690         1.695945
 C        -1.159844         3.184303         1.526645
 O        -0.464051         3.720353         2.704214
 C         0.795336         3.260124         2.838279
 C         1.235213         3.036166         1.374830
 C        -0.036460         2.625852         0.539811
 H         0.400103        -0.228872         1.773016
 H        -2.442017         1.910096        -0.301312
 H        -2.538342         0.110035         0.151082
 H        -2.126935         1.442868         2.569949
 H        -1.935812         3.897487         1.101144
 H         1.477350         3.921541         3.533005
 H         0.762563         2.264406         3.304564
 H         1.714580         4.020707         0.989858
 H         2.077382         2.297758         1.280488
 H        -0.071819         3.159450        -0.529319
