19
Iteration:  1958
 O         0.160074        -0.034466         1.004352
 C        -0.570087         1.198356         0.761527
 C        -2.157231         1.238952         0.469057
 C        -1.745095         1.822538         1.739894
 C        -1.147113         3.215707         1.517368
 O        -0.529753         3.842457         2.603198
 C         0.796774         3.176577         2.799340
 C         1.276592         3.087983         1.338916
 C        -0.002793         2.589179         0.649282
 H         0.327514        -0.434246         0.175085
 H        -2.493833         2.046182        -0.331467
 H        -2.624152         0.282352         0.516409
 H        -2.087538         1.587015         2.821619
 H        -1.768558         4.002288         0.987572
 H         1.244603         3.718209         3.604842
 H         0.485205         2.255722         3.240212
 H         1.656010         4.016271         0.899539
 H         2.107936         2.244791         1.282168
 H        -0.088484         2.865057        -0.409857
