19
Iteration:  4501charge 0 multiplicity 1
 O         0.187217         0.074276         0.877434
 C        -0.605540         1.170388         0.813766
 C        -2.012719         1.214760         0.329530
 C        -1.721006         1.820236         1.701801
 C        -1.228225         3.247248         1.617469
 O        -0.560200         3.839473         2.750702
 C         0.765675         3.199125         2.782792
 C         1.241830         2.965201         1.315283
 C        -0.045461         2.569074         0.603873
 H         0.548786        -0.003427         1.771936
 H        -2.109288         1.972746        -0.334008
 H        -2.732319         0.304802         0.271995
 H        -2.302084         1.452604         2.514543
 H        -1.878249         4.013394         1.180735
 H         1.285098         3.848774         3.374364
 H         0.776499         2.289425         3.434485
 H         1.831024         3.863483         0.990285
 H         2.007935         2.028989         1.060427
 H         0.056919         2.841208        -0.484304
