19
Iteration:  1593
 O         0.116884         0.093268         1.102232
 C        -0.653358         1.281567         0.776605
 C        -2.115657         1.079136         0.418077
 C        -1.805287         1.850976         1.678549
 C        -1.137754         3.221327         1.522039
 O        -0.517990         3.751123         2.674224
 C         0.816801         3.229295         2.796038
 C         1.317589         3.010839         1.340136
 C        -0.031689         2.646663         0.544885
 H         0.729016         0.004443         0.371689
 H        -2.508879         1.653640        -0.505386
 H        -2.652672         0.193591         0.592535
 H        -1.941104         1.348499         2.644897
 H        -1.718989         3.943602         0.978783
 H         1.522859         3.824874         3.448576
 H         0.769877         2.121155         3.255832
 H         1.628424         3.924975         0.894210
 H         2.051644         2.175550         1.283634
 H         0.097143         2.928585        -0.487828
