19
Iteration:  1181
 O         0.047810        -0.040659         0.944228
 C        -0.574682         1.194463         0.770924
 C        -2.146881         1.265026         0.393860
 C        -1.713152         1.725350         1.816555
 C        -1.072753         3.130804         1.570647
 O        -0.591978         3.758673         2.636383
 C         0.789386         3.483225         2.801988
 C         1.318794         2.962804         1.397241
 C         0.048040         2.658583         0.588638
 H        -0.022779        -0.347718        -0.038929
 H        -2.695119         1.950409        -0.317809
 H        -2.613042         0.143976         0.385505
 H        -2.095238         1.497027         2.778143
 H        -1.763071         3.839290         1.044040
 H         1.347116         4.399080         3.038275
 H         0.907370         2.644570         3.509756
 H         1.895099         3.695777         0.913570
 H         2.081474         2.099167         1.582057
 H         0.130748         3.006375        -0.449095
