19
Iteration:  3220charge 0 multiplicity 1
 O         0.137481        -0.005355         0.889219
 C        -0.628451         1.144032         0.835141
 C        -2.074415         1.268635         0.310817
 C        -1.741504         1.779298         1.677823
 C        -1.190618         3.198265         1.575189
 O        -0.552828         3.801790         2.729907
 C         0.854341         3.370128         2.809194
 C         1.293231         2.866580         1.380726
 C        -0.086372         2.608796         0.644441
 H         1.063952         0.383305         1.053906
 H        -2.150590         1.939004        -0.583729
 H        -2.765977         0.476866         0.421885
 H        -2.414599         1.290850         2.473467
 H        -1.892416         3.847900         1.140383
 H         1.388256         4.376998         2.865116
 H         0.901847         2.738591         3.757864
 H         1.693714         3.769328         0.897740
 H         1.954362         1.990016         1.402719
 H         0.001019         3.069062        -0.325858
