19
Iteration:  2418
 O         0.253228         0.089984         0.882639
 C        -0.632062         1.263547         0.870764
 C        -2.053867         1.219657         0.464782
 C        -1.710150         1.872699         1.816056
 C        -1.204926         3.230705         1.519368
 O        -0.549913         3.833414         2.616680
 C         0.725835         3.128063         2.735145
 C         1.213431         2.869920         1.342392
 C        -0.028705         2.635031         0.576546
 H         0.287646        -0.211586         1.775419
 H        -2.514562         1.830963        -0.376963
 H        -2.440440         0.191344         0.517937
 H        -1.968071         1.370516         2.735735
 H        -1.771510         4.010125         0.981843
 H         1.424260         3.748533         3.451395
 H         0.616387         2.277613         3.303148
 H         1.766077         3.775902         0.920782
 H         1.911254         2.082196         1.110046
 H        -0.024978         2.982953        -0.507105
