19
Iteration:  2184charge 0 multiplicity 1
 O         0.189033         0.207156         1.087906
 C        -0.700205         1.305849         0.786434
 C        -2.122441         1.141683         0.436504
 C        -1.648099         1.825016         1.801203
 C        -1.153470         3.261440         1.451117
 O        -0.554291         3.712056         2.632203
 C         0.734228         3.089391         2.734670
 C         1.235800         2.966669         1.342019
 C         0.018316         2.632017         0.572910
 H         0.483359        -0.259716         0.238255
 H        -2.503895         1.670006        -0.429790
 H        -2.490686         0.077903         0.497068
 H        -1.957140         1.639943         2.874762
 H        -1.808369         4.129883         1.152345
 H         1.475609         3.741473         3.421299
 H         0.761242         2.160049         3.175507
 H         1.730335         3.799313         0.981119
 H         2.007413         2.128587         1.345802
 H         0.026377         3.008467        -0.463254
