19
Iteration:  4244
 O         0.223030         0.066949         0.835965
 C        -0.651741         1.214153         0.769411
 C        -2.082327         1.168581         0.398749
 C        -1.748709         1.889844         1.770529
 C        -1.161656         3.251659         1.513488
 O        -0.529063         3.827217         2.710958
 C         0.776077         3.140972         2.794843
 C         1.168187         2.972550         1.408226
 C        -0.033132         2.577147         0.564922
 H         0.911524         0.324830         1.532181
 H        -2.395021         1.731949        -0.439446
 H        -2.521605         0.110798         0.641453
 H        -1.972351         1.377181         2.606934
 H        -1.760565         4.124504         1.201558
 H         1.326902         3.771800         3.572738
 H         0.539566         2.255150         3.412158
 H         1.879568         3.881053         1.016651
 H         1.869191         2.105052         1.329832
 H         0.067933         2.896461        -0.467635
