19
Iteration:  1837
 O         0.140475         0.089906         1.044353
 C        -0.578357         1.210213         0.832722
 C        -1.968962         1.168574         0.339214
 C        -1.716083         1.796532         1.780364
 C        -1.163250         3.241794         1.551811
 O        -0.508456         3.887481         2.678024
 C         0.746532         3.109152         2.710414
 C         1.181578         3.014204         1.327712
 C        -0.034847         2.682360         0.613725
 H        -0.327468        -0.635076         0.511115
 H        -2.401639         1.770487        -0.558141
 H        -2.463087         0.128656         0.395585
 H        -2.072525         1.308007         2.629616
 H        -1.856144         4.022643         1.097488
 H         1.583960         3.448887         3.340779
 H         0.484932         2.120767         3.210858
 H         1.614517         3.864303         0.896115
 H         2.024139         2.204628         1.319847
 H        -0.040399         2.930078        -0.456796
