19
Iteration:  4638
 O         0.126891         0.109775         0.865347
 C        -0.577247         1.273491         0.791203
 C        -2.028900         1.223124         0.413417
 C        -1.623538         1.754543         1.760359
 C        -1.146117         3.239250         1.554420
 O        -0.578994         3.796781         2.641301
 C         0.724316         3.196822         2.820540
 C         1.149669         2.896454         1.408865
 C         0.006802         2.655859         0.518528
 H         0.488439        -0.111153         1.781302
 H        -2.569851         1.839771        -0.358265
 H        -2.524173         0.216145         0.507858
 H        -2.031149         1.201619         2.559900
 H        -1.752122         4.025149         1.046401
 H         1.282439         3.865627         3.632528
 H         0.777865         2.244994         3.392966
 H         1.809540         3.722758         0.918017
 H         1.847113         1.926514         1.452111
 H         0.096233         3.157122        -0.449118
