19
Iteration:  4958charge 0 multiplicity 1
 O         0.208033         0.123926         0.841107
 C        -0.639614         1.261364         0.818855
 C        -2.078081         1.176067         0.410515
 C        -1.749732         1.918244         1.702965
 C        -1.170096         3.258422         1.528672
 O        -0.540590         3.788915         2.662339
 C         0.671097         3.123229         2.842158
 C         1.279067         2.890938         1.422656
 C        -0.003859         2.571182         0.566816
 H         0.898393         0.269624         1.571591
 H        -2.434681         1.579729        -0.460475
 H        -2.653316         0.189094         0.449267
 H        -1.919706         1.475711         2.813807
 H        -1.804965         4.005591         1.135912
 H         1.351461         3.633860         3.410380
 H         0.649977         2.098483         3.226263
 H         1.545917         3.903974         1.081411
 H         2.191036         2.325358         1.489925
 H         0.040578         2.985149        -0.485084
