19
Iteration:  3511
 O         0.156726         0.071912         0.822985
 C        -0.679623         1.249012         0.750756
 C        -2.049494         1.176067         0.423981
 C        -1.646936         1.767942         1.849395
 C        -1.280342         3.231982         1.590358
 O        -0.483281         3.922046         2.546106
 C         0.762673         3.119780         2.826742
 C         1.265167         2.947515         1.437184
 C        -0.021418         2.614771         0.586341
 H         0.805454         0.112843         1.503657
 H        -2.351048         1.940071        -0.328118
 H        -2.543550         0.145073         0.311364
 H        -2.302439         1.314040         2.674718
 H        -1.966285         3.921616         1.118008
 H         1.169499         3.763650         3.577773
 H         0.560667         2.193834         3.363355
 H         1.874311         3.814219         1.181930
 H         2.027813         2.042829         1.389834
 H         0.003486         3.031586        -0.477840
