19
Iteration:  3916
 O         0.101124        -0.004148         0.922225
 C        -0.605048         1.174946         0.814652
 C        -1.989628         1.269456         0.380514
 C        -1.680157         1.718078         1.775518
 C        -1.185455         3.194555         1.546831
 O        -0.533602         3.821222         2.702279
 C         0.781181         3.125255         2.779422
 C         1.242889         3.022248         1.327794
 C        -0.056172         2.784953         0.524337
 H         0.565969         0.076809         1.842277
 H        -2.281321         1.938415        -0.507213
 H        -2.585234         0.472891         0.585099
 H        -2.403540         1.330551         2.634843
 H        -1.948419         3.931557         1.155304
 H         1.485818         3.791452         3.393852
 H         0.597830         2.195171         3.292667
 H         1.818507         3.910926         0.975234
 H         1.909125         2.220838         1.185005
 H        -0.077219         3.045124        -0.534892
