19
Iteration:   918charge 0 multiplicity 1
 O         0.127349         0.031688         0.943255
 C        -0.616980         1.231247         0.826890
 C        -2.090282         1.183197         0.431051
 C        -1.673207         1.732522         1.780293
 C        -1.165898         3.215931         1.506456
 O        -0.496646         3.954161         2.578795
 C         0.777160         3.294549         2.810206
 C         1.262990         2.861519         1.386609
 C        -0.034023         2.665872         0.624256
 H        -0.132010        -0.545936         0.193380
 H        -2.668244         1.849667        -0.297931
 H        -2.552972         0.202696         0.549898
 H        -2.023770         1.143386         2.713895
 H        -1.938105         3.950611         1.316693
 H         1.321536         4.102776         3.368268
 H         0.721377         2.340160         3.497505
 H         1.888861         3.596718         0.838273
 H         1.847064         1.819552         1.326930
 H         0.185059         3.022143        -0.440578
