19
Iteration:   195charge 0 multiplicity 1
 O         0.177243         0.074732         1.157612
 C        -0.631902         1.236567         0.921103
 C        -2.069010         1.148598         0.273625
 C        -1.795620         1.811288         1.668459
 C        -1.223429         3.209221         1.540242
 O        -0.470501         3.826560         2.699426
 C         0.829848         3.148178         2.757439
 C         1.302175         3.010059         1.228698
 C        -0.022356         2.688184         0.564827
 H        -0.376453        -0.661994         1.247133
 H        -2.190033         1.731611        -0.637214
 H        -2.602529         0.266607         0.347705
 H        -2.402787         1.441989         2.455091
 H        -1.824050         4.004000         1.143169
 H         1.545204         3.852268         3.279312
 H         0.689220         2.221844         3.268834
 H         1.760276         3.836531         0.779953
 H         2.026053         2.260599         1.227945
 H        -0.348301         3.069061        -0.461072
