19
Iteration:  4321charge 0 multiplicity 1
 O         0.153187        -0.022532         0.783950
 C        -0.570861         1.196622         0.786340
 C        -2.025188         1.255579         0.379589
 C        -1.796881         1.804094         1.784592
 C        -1.181671         3.174140         1.540767
 O        -0.499134         3.855210         2.635409
 C         0.781840         3.251359         2.833299
 C         1.241569         2.997732         1.450799
 C        -0.096506         2.577088         0.640114
 H         0.927554        -0.052255         1.301405
 H        -2.249951         2.015487        -0.380285
 H        -2.522593         0.215116         0.329293
 H        -2.208545         1.419792         2.679286
 H        -1.908816         3.986833         1.235155
 H         1.368796         3.997595         3.518733
 H         0.527294         2.262011         3.414408
 H         1.592025         4.024525         0.955213
 H         2.071985         2.299459         1.450327
 H        -0.039087         2.889249        -0.399825
