19
Iteration:  4549
 O         0.084707         0.016637         0.845732
 C        -0.645910         1.268349         0.769534
 C        -2.057788         1.172636         0.360048
 C        -1.667413         1.748731         1.782745
 C        -1.140714         3.221220         1.504620
 O        -0.594768         3.806111         2.749886
 C         0.756330         3.269237         2.801783
 C         1.288572         2.984138         1.436490
 C         0.014905         2.640470         0.497285
 H         0.600527         0.067008         1.713891
 H        -2.439123         1.838681        -0.464723
 H        -2.337778         0.216867         0.480714
 H        -2.072928         1.372768         2.776032
 H        -1.861540         3.896578         1.047588
 H         1.281582         3.912924         3.592591
 H         0.719747         2.293890         3.387781
 H         1.801743         3.817702         0.938505
 H         2.108036         2.141605         1.462989
 H         0.031665         3.083448        -0.495619
