19
Iteration:   303
 O         0.207307         0.089581         0.988701
 C        -0.613445         1.195316         0.886659
 C        -2.100481         1.266240         0.450166
 C        -1.675484         1.729877         1.792430
 C        -1.204545         3.233291         1.552529
 O        -0.506793         3.963058         2.494712
 C         0.660462         3.223149         2.752492
 C         1.324148         2.814665         1.383879
 C        -0.020241         2.621538         0.643770
 H         0.335836        -0.377914         0.171489
 H        -2.433658         1.936490        -0.303591
 H        -2.741880         0.331045         0.434741
 H        -2.092425         1.497836         2.789026
 H        -1.906304         3.834498         0.944059
 H         1.384254         3.695928         3.391307
 H         0.356632         2.296834         3.272151
 H         1.906029         3.644841         0.897601
 H         1.898291         1.879614         1.319159
 H        -0.101443         2.883082        -0.382197
