19
Iteration:  4077
 O         0.140084         0.062754         0.805703
 C        -0.686342         1.267413         0.825533
 C        -2.076978         1.172750         0.454483
 C        -1.716265         1.822504         1.799529
 C        -1.155505         3.228567         1.506605
 O        -0.530796         3.800837         2.665661
 C         0.709206         3.155206         2.844185
 C         1.280894         3.010029         1.410148
 C         0.032286         2.643229         0.516999
 H         0.948846         0.151928         1.412291
 H        -2.588273         1.642920        -0.392198
 H        -2.367491         0.160031         0.520901
 H        -2.213091         1.346630         2.776891
 H        -1.814947         3.885771         0.978220
 H         1.284265         3.720633         3.475377
 H         0.632260         2.136262         3.233663
 H         1.950365         3.885379         1.055443
 H         1.905056         2.094523         1.430987
 H         0.115231         3.029641        -0.522023
