19
Iteration:   805charge 0 multiplicity 1
 O         0.117760         0.078779         1.121616
 C        -0.679384         1.226722         0.837080
 C        -2.043151         1.253289         0.314119
 C        -1.767484         1.767016         1.689919
 C        -1.152641         3.191533         1.574283
 O        -0.532316         3.784855         2.687443
 C         0.888516         3.275889         2.680651
 C         1.311696         2.990094         1.287804
 C        -0.045941         2.612588         0.640757
 H        -0.391661        -0.677809         0.886751
 H        -2.431114         1.919478        -0.505044
 H        -2.521466         0.182355         0.362175
 H        -2.226578         1.528657         2.557270
 H        -2.015777         3.787702         1.184173
 H         1.441725         3.969456         3.283449
 H         0.920823         2.332143         3.323363
 H         1.910242         3.745484         0.637297
 H         1.995584         2.156813         1.230598
 H         0.067589         2.901050        -0.384348
