19
Iteration:  4113
 O         0.143257        -0.006414         0.900753
 C        -0.611119         1.220449         0.820842
 C        -2.048183         1.237349         0.329802
 C        -1.741354         1.755320         1.749550
 C        -1.125885         3.232543         1.553588
 O        -0.519375         3.828913         2.730266
 C         0.792053         3.166627         2.825317
 C         1.181775         2.974010         1.346529
 C        -0.084628         2.688752         0.552792
 H         0.918622         0.412942         1.401602
 H        -2.385765         1.802138        -0.475438
 H        -2.433786         0.211642         0.283548
 H        -2.196835         1.316813         2.651581
 H        -1.882811         4.002728         1.149160
 H         1.384611         4.037953         3.281079
 H         0.739270         2.316289         3.523446
 H         1.916920         3.857735         1.079826
 H         1.840306         2.077182         1.307796
 H         0.013590         2.964278        -0.633593
