19
Iteration:  3652charge 0 multiplicity 1
 O         0.133974         0.035883         0.929486
 C        -0.660023         1.272394         0.779176
 C        -2.076073         1.148371         0.398506
 C        -1.662018         1.788363         1.731258
 C        -1.141483         3.259267         1.490587
 O        -0.509347         3.786869         2.702983
 C         0.747577         3.138478         2.764653
 C         1.296517         3.016638         1.429673
 C        -0.068958         2.712528         0.540804
 H         0.319095        -0.171295         1.823136
 H        -2.660178         1.778141        -0.290177
 H        -2.387112         0.145152         0.481247
 H        -2.085115         1.434825         2.625244
 H        -1.739678         4.005072         0.967807
 H         1.372991         3.655336         3.473957
 H         0.636671         2.098787         3.136625
 H         1.616827         3.972866         1.048822
 H         1.972673         2.312032         1.226033
 H        -0.012285         3.038022        -0.425205
