19
Iteration:   527
 O         0.144703         0.051825         1.079813
 C        -0.595063         1.200293         0.840690
 C        -2.128865         1.232456         0.389652
 C        -1.720203         1.778838         1.773991
 C        -1.155844         3.269357         1.522687
 O        -0.516821         3.843196         2.632459
 C         0.732491         3.210482         2.743953
 C         1.306711         2.941666         1.293233
 C        -0.055071         2.644982         0.580023
 H         0.665178        -0.258980         0.242372
 H        -2.497491         1.694787        -0.479680
 H        -2.613090         0.215203         0.616670
 H        -2.137445         1.456723         2.641663
 H        -1.780334         4.074950         1.098922
 H         1.390830         3.833691         3.398041
 H         0.679738         2.219883         3.237458
 H         1.956847         3.665523         0.948559
 H         1.893868         2.006047         1.483258
 H         0.036386         2.904644        -0.500587
