19
Iteration:  2253charge 0 multiplicity 1
 O         0.214381         0.111100         0.944098
 C        -0.634457         1.214825         0.857610
 C        -2.100583         1.236358         0.364967
 C        -1.786645         1.837404         1.792060
 C        -1.152283         3.170722         1.556343
 O        -0.549030         3.790169         2.626923
 C         0.803807         3.254339         2.764035
 C         1.271652         2.960063         1.371670
 C        -0.023204         2.584008         0.653705
 H        -0.015773        -0.780557         0.508227
 H        -2.580383         1.814507        -0.509846
 H        -2.368328         0.136872         0.286615
 H        -2.406438         1.578155         2.627427
 H        -1.812287         3.826024         1.017480
 H         1.400529         4.029436         3.282980
 H         0.936896         2.422619         3.473854
 H         1.652911         3.912498         0.925709
 H         2.064925         2.240624         1.148304
 H         0.197632         2.775682        -0.407733
