19
Iteration:  3541charge 0 multiplicity 1
 O         0.097810        -0.009034         0.812632
 C        -0.589962         1.230405         0.765176
 C        -2.041057         1.218677         0.474841
 C        -1.591259         1.842400         1.792168
 C        -1.181463         3.230572         1.539792
 O        -0.602182         3.848754         2.654605
 C         0.738686         3.147311         2.770735
 C         1.238103         2.990944         1.385050
 C         0.008900         2.607664         0.631192
 H         0.536391        -0.138843         1.726277
 H        -2.399091         1.761534        -0.372305
 H        -2.632363         0.238467         0.440587
 H        -2.165167         1.395971         2.706239
 H        -1.703175         4.085453         0.997989
 H         1.233418         3.965126         3.355204
 H         0.625996         2.171076         3.275868
 H         1.753003         3.890910         0.965110
 H         2.008385         2.323720         1.214022
 H         0.079488         3.117262        -0.291462
