19
Iteration:  3761charge 0 multiplicity 1
 O         0.074849         0.010394         0.779847
 C        -0.582173         1.234652         0.807061
 C        -2.063558         1.234080         0.432013
 C        -1.716119         1.811891         1.784982
 C        -1.200603         3.156573         1.520532
 O        -0.541362         3.780879         2.687286
 C         0.752715         3.275176         2.792946
 C         1.326678         2.982293         1.403310
 C         0.020809         2.653388         0.594035
 H         0.418906        -0.097149         1.659233
 H        -2.478718         1.836319        -0.333106
 H        -2.320414         0.129792         0.393065
 H        -2.266768         1.558130         2.755871
 H        -1.993181         3.843456         1.189788
 H         1.306195         4.068975         3.257568
 H         0.735286         2.473672         3.506918
 H         1.850974         3.840254         0.960454
 H         1.926786         2.114418         1.322960
 H         0.083558         2.857585        -0.406711
