19
Iteration:  4526charge 0 multiplicity 1
 O         0.141857         0.049244         0.882974
 C        -0.587682         1.271042         0.836390
 C        -2.059481         1.243453         0.300980
 C        -1.727865         1.715925         1.681643
 C        -1.217856         3.138545         1.581028
 O        -0.471880         3.829278         2.629359
 C         0.758317         3.236114         2.786037
 C         1.229942         2.964405         1.411262
 C        -0.051111         2.663974         0.683457
 H         0.397816        -0.148372         1.758243
 H        -2.390636         1.933800        -0.433925
 H        -2.426041         0.261696         0.394683
 H        -2.073014         1.276156         2.699995
 H        -1.888141         3.847608         1.140983
 H         1.288227         4.002086         3.386924
 H         0.811480         2.349488         3.517969
 H         1.682777         3.874378         1.056510
 H         1.982782         2.107426         1.025696
 H         0.016388         3.101786        -0.314055
