19
Iteration:  4906charge 0 multiplicity 1
 O         0.060839         0.050098         0.878558
 C        -0.610336         1.243969         0.796726
 C        -2.024614         1.201765         0.261736
 C        -1.693741         1.688040         1.759368
 C        -1.194405         3.225917         1.548914
 O        -0.534111         3.835480         2.726594
 C         0.795969         3.283441         2.863804
 C         1.265293         2.963034         1.383725
 C        -0.024561         2.657613         0.579830
 H         0.464332         0.050210         1.773277
 H        -2.368205         1.970488        -0.438367
 H        -2.512066         0.100647         0.112483
 H        -2.311545         1.117624         2.647871
 H        -1.891150         3.981574         1.122971
 H         1.488551         3.933040         3.344786
 H         0.852974         2.266142         3.305434
 H         1.940456         3.713997         1.024799
 H         1.885249         2.106596         1.309194
 H         0.109023         2.892403        -0.409713
