19
Iteration:  4583
 O         0.115236         0.022389         0.790712
 C        -0.625060         1.214439         0.840927
 C        -2.014246         1.177119         0.411309
 C        -1.751357         1.849695         1.821133
 C        -1.208392         3.202463         1.466438
 O        -0.539071         3.829108         2.650771
 C         0.747302         3.205379         2.878984
 C         1.301821         2.949770         1.479091
 C        -0.045211         2.623441         0.530195
 H         1.017955         0.308891         1.173730
 H        -2.498178         1.670220        -0.533396
 H        -2.392279         0.168041         0.368513
 H        -2.234797         1.525329         2.707964
 H        -1.789488         4.013149         0.995187
 H         1.321475         4.045182         3.513589
 H         0.704136         2.193566         3.300435
 H         1.638719         4.004393         1.241777
 H         2.183638         2.249746         1.288557
 H         0.217569         2.989388        -0.453700
