19
Iteration:  3170charge 0 multiplicity 1
 O         0.119726         0.004391         0.757251
 C        -0.604460         1.230442         0.744730
 C        -2.036015         1.143034         0.449597
 C        -1.683248         1.874732         1.811825
 C        -1.122790         3.182616         1.521221
 O        -0.569047         3.867735         2.615812
 C         0.761797         3.221952         2.847407
 C         1.245245         2.919968         1.441909
 C        -0.012073         2.664031         0.623123
 H         0.496383        -0.023134         1.645334
 H        -2.651335         1.740222        -0.224559
 H        -2.379641         0.025043         0.570341
 H        -2.213135         1.690935         2.792359
 H        -1.927036         3.896243         1.000300
 H         1.242706         3.993360         3.474444
 H         0.467403         2.330735         3.402904
 H         1.743625         3.821506         0.923110
 H         1.934048         2.048857         1.372379
 H         0.149118         3.144282        -0.407742
