19
Iteration:  2224charge 0 multiplicity 1
 O         0.189003         0.060536         1.019895
 C        -0.606552         1.163110         0.850226
 C        -2.011802         1.128498         0.334759
 C        -1.685683         1.853786         1.763084
 C        -1.170886         3.261588         1.587140
 O        -0.451399         3.863693         2.641332
 C         0.729057         3.146134         2.728420
 C         1.216536         2.992840         1.364470
 C        -0.127751         2.703990         0.615476
 H        -0.155210        -0.718053         0.589536
 H        -2.337635         1.805633        -0.517829
 H        -2.545418         0.246969         0.291427
 H        -2.154118         1.393053         2.705599
 H        -1.932900         3.910451         1.109617
 H         1.382627         3.761659         3.323920
 H         0.451879         2.047423         3.065492
 H         1.630037         4.024828         1.018008
 H         1.922609         2.206403         1.149961
 H         0.082363         3.005695        -0.422631
