19
Iteration:   699
 O         0.256630         0.095855         1.071637
 C        -0.673651         1.202476         0.873210
 C        -2.094010         1.260193         0.396498
 C        -1.626580         1.840692         1.827169
 C        -1.215879         3.278686         1.521731
 O        -0.509018         3.898912         2.586625
 C         0.728217         3.107694         2.758366
 C         1.267333         2.836429         1.339495
 C        -0.077511         2.585284         0.518262
 H         0.314853        -0.158223         0.182243
 H        -2.375204         1.829889        -0.450956
 H        -2.814911         0.375196         0.585950
 H        -1.997274         1.679630         2.765186
 H        -1.931301         3.876280         1.010028
 H         1.409670         3.678144         3.495398
 H         0.420061         2.155181         3.257529
 H         1.648437         3.731680         0.848409
 H         2.046921         2.016382         1.340806
 H        -0.118818         3.030499        -0.569036
