19
Iteration:  4611
 O         0.185801         0.050458         0.817629
 C        -0.632791         1.200186         0.808228
 C        -2.019695         1.212355         0.376792
 C        -1.697735         1.763796         1.802996
 C        -1.207643         3.288904         1.545943
 O        -0.566221         3.924697         2.618050
 C         0.758579         3.143976         2.816135
 C         1.270886         2.868495         1.426972
 C        -0.066779         2.659579         0.644483
 H         0.946688         0.196947         1.483891
 H        -2.430761         1.751141        -0.409015
 H        -2.605534         0.254157         0.414420
 H        -2.274980         1.137564         2.583435
 H        -1.785534         4.012240         0.966256
 H         1.276466         3.713835         3.468625
 H         0.572953         2.141916         3.312566
 H         1.647870         3.782733         1.079153
 H         2.043113         2.109654         1.258173
 H         0.089744         3.117900        -0.384939
