19
Iteration:   538charge 0 multiplicity 1
 O         0.110084         0.083309         1.070847
 C        -0.635123         1.266590         0.867634
 C        -2.096518         1.224305         0.451000
 C        -1.669275         1.847512         1.723451
 C        -1.177944         3.208086         1.457396
 O        -0.595727         3.757037         2.637477
 C         0.804533         3.244176         2.737803
 C         1.297229         2.887548         1.363812
 C         0.035250         2.634523         0.568798
 H         0.268090        -0.297516         0.172792
 H        -2.553773         1.836098        -0.268167
 H        -2.554738         0.181912         0.578132
 H        -1.857825         1.506890         2.648415
 H        -1.970325         3.874213         1.065395
 H         1.442357         4.028834         3.227186
 H         0.709845         2.376903         3.397868
 H         1.698871         3.744687         0.929536
 H         1.995836         2.049324         1.166865
 H         0.144815         2.965948        -0.474515
