19
Iteration:  3772
 O         0.070994        -0.004531         0.780654
 C        -0.596504         1.222268         0.833379
 C        -2.050694         1.204535         0.427156
 C        -1.689424         1.748700         1.728736
 C        -1.167429         3.240927         1.536302
 O        -0.602733         3.811532         2.640576
 C         0.884150         3.270110         2.823992
 C         1.228256         3.007794         1.398187
 C        -0.014748         2.647096         0.643809
 H         0.305912        -0.387339         1.701400
 H        -2.392397         1.893008        -0.285232
 H        -2.609397         0.196576         0.310127
 H        -1.990094         1.520462         2.833089
 H        -1.823727         3.957228         1.017823
 H         1.374614         3.960291         3.442156
 H         0.886137         2.260264         3.214899
 H         1.783208         3.885307         1.041094
 H         1.937765         2.223279         1.404016
 H         0.160357         2.945643        -0.320112
