19
Iteration:  2168
 O         0.201685         0.164478         1.058568
 C        -0.628239         1.233217         0.828714
 C        -2.136982         1.142754         0.453813
 C        -1.801567         1.833884         1.656290
 C        -1.163813         3.213904         1.504782
 O        -0.488730         3.785505         2.655083
 C         0.818220         3.137941         2.806188
 C         1.289260         2.917997         1.341117
 C        -0.081951         2.675478         0.540102
 H         0.804380         0.178912         0.318596
 H        -2.719431         1.659844        -0.350744
 H        -2.463914         0.145950         0.728721
 H        -2.190791         1.430464         2.581168
 H        -1.815960         3.960121         1.012443
 H         1.331047         3.789790         3.471810
 H         0.641800         2.163931         3.525195
 H         1.713974         3.948126         0.966482
 H         2.000886         2.151479         1.086195
 H         0.005351         2.975923        -0.517512
