19
Iteration:    11
 O         0.098502         0.032494         1.058118
 C        -0.647036         1.192995         0.822363
 C        -2.062896         1.185510         0.378614
 C        -1.708857         1.792336         1.778186
 C        -1.134842         3.175633         1.474264
 O        -0.556136         3.875086         2.615651
 C         0.779585         3.239090         2.757912
 C         1.254822         2.980011         1.383097
 C        -0.013854         2.656863         0.660943
 H         0.514090        -0.188674         0.154951
 H        -2.128005         1.975468        -0.318151
 H        -2.791107         0.368893         0.271799
 H        -2.138177         1.371060         2.713523
 H        -1.567661         3.831291         0.767332
 H         1.498239         3.936371         3.257195
 H         0.766862         2.283833         3.223828
 H         1.796105         3.723556         0.885093
 H         1.857175         2.095981         1.338907
 H         0.158139         2.878357        -0.321103
