19
Iteration:    23charge 0 multiplicity 1
 O         0.063150        -0.075864         0.998463
 C        -0.640831         1.130603         0.877747
 C        -2.078919         1.292680         0.337277
 C        -1.719379         1.717731         1.776319
 C        -1.147647         3.187015         1.509219
 O        -0.570199         3.917833         2.608056
 C         0.826198         3.349338         2.774329
 C         1.304892         3.002790         1.366879
 C         0.016412         2.555661         0.657794
 H         0.799816        -0.061699         0.297145
 H        -2.280072         2.104809        -0.374674
 H        -2.700609         0.471165         0.165959
 H        -2.131466         1.376872         2.676608
 H        -1.894001         3.814597         1.056960
 H         1.370939         4.059861         3.365279
 H         0.700990         2.441320         3.355872
 H         1.766537         3.848535         0.862385
 H         2.021059         2.179512         1.428143
 H        -0.020913         2.923173        -0.319339
