19
Iteration:   946charge 0 multiplicity 1
 O         0.055323        -0.012005         0.926114
 C        -0.655181         1.131747         0.899069
 C        -2.081857         1.302682         0.374903
 C        -1.720045         1.770512         1.840034
 C        -1.106722         3.140860         1.483984
 O        -0.562638         3.825400         2.672022
 C         0.828301         3.430943         2.764355
 C         1.276853         2.944971         1.361702
 C         0.022500         2.539096         0.623741
 H         0.464288        -0.066094         0.077525
 H        -2.324616         2.018717        -0.376777
 H        -2.711113         0.321323         0.265238
 H        -2.300708         1.535204         2.644047
 H        -1.884350         3.906534         1.265986
 H         1.302753         4.333523         3.099763
 H         1.119698         2.668577         3.425608
 H         1.807245         3.656903         0.691484
 H         1.942375         2.150615         1.384559
 H         0.183715         2.788582        -0.404663
