19
Iteration:  4691charge 0 multiplicity 1
 O         0.083053         0.036375         0.862694
 C        -0.592583         1.180458         0.842381
 C        -2.003043         1.215485         0.279990
 C        -1.725965         1.838909         1.731147
 C        -1.212297         3.226860         1.546012
 O        -0.561802         3.807851         2.739265
 C         0.792819         3.196737         2.815461
 C         1.235410         2.981396         1.367267
 C        -0.001445         2.557395         0.634801
 H         0.831032         0.109056         1.551415
 H        -2.151239         1.898351        -0.550948
 H        -2.431610         0.253937         0.315802
 H        -2.170133         1.663651         2.704628
 H        -1.803712         4.043519         1.103298
 H         1.280331         4.066945         3.297087
 H         0.883240         2.266600         3.446356
 H         1.464807         3.979267         0.886626
 H         2.182001         2.283985         1.220941
 H        -0.093385         3.016708        -0.405346
