19
Iteration:   642
 O         0.216545         0.081476         0.972680
 C        -0.616574         1.217726         0.758440
 C        -2.156627         1.154936         0.510743
 C        -1.667192         1.840977         1.728569
 C        -1.093468         3.266451         1.510627
 O        -0.547255         3.872127         2.640400
 C         0.697414         3.220496         2.808460
 C         1.240706         2.891845         1.373344
 C         0.015306         2.628776         0.521833
 H        -0.437255        -0.678318         0.766094
 H        -2.750288         1.640313        -0.388779
 H        -2.538998         0.200874         0.744652
 H        -1.790882         1.623800         2.784914
 H        -1.648046         4.037981         0.988087
 H         1.382156         3.788201         3.466461
 H         0.485748         2.260904         3.347568
 H         1.932806         3.614536         0.809887
 H         1.834098         1.986549         1.522660
 H         0.045944         3.085405        -0.588109
