19
Iteration:  4981
 O         0.115654         0.058296         0.875998
 C        -0.579952         1.302404         0.819303
 C        -2.002704         1.140815         0.455482
 C        -1.715299         1.852027         1.723776
 C        -1.156971         3.248001         1.444608
 O        -0.521926         3.827324         2.627835
 C         0.697143         3.038587         2.875215
 C         1.282917         3.000772         1.462128
 C        -0.073923         2.679235         0.558977
 H         1.013512         0.269927         1.171167
 H        -2.438311         1.711259        -0.273990
 H        -2.475262         0.103163         0.320121
 H        -2.465594         1.528067         2.647182
 H        -1.861929         3.942877         1.075384
 H         1.348353         3.522435         3.457526
 H         0.610676         2.003442         3.234193
 H         1.832594         3.882642         1.165175
 H         1.944334         2.169066         1.352384
 H        -0.170786         3.022278        -0.480585
