19
Iteration:  4141charge 0 multiplicity 1
 O         0.135314         0.066458         0.858608
 C        -0.662751         1.267153         0.861854
 C        -1.987296         1.255702         0.358077
 C        -1.757889         1.748506         1.761831
 C        -1.191003         3.211795         1.548583
 O        -0.594408         3.768077         2.694192
 C         0.846173         3.169816         2.755698
 C         1.296195         2.986059         1.306776
 C        -0.016956         2.643862         0.666320
 H         0.448381         0.079890         1.777378
 H        -2.407454         1.757748        -0.609734
 H        -2.434644         0.282328         0.359296
 H        -2.312737         1.357367         2.735927
 H        -1.832299         3.964612         1.092234
 H         1.266073         4.004205         3.250794
 H         0.804197         2.267150         3.430402
 H         1.644377         3.893147         0.940577
 H         2.032370         2.190481         1.217563
 H         0.070957         2.918246        -0.345677
