19
Iteration:  4418
 O         0.195704         0.087716         0.867313
 C        -0.604516         1.252214         0.960472
 C        -1.976498         1.248043         0.376256
 C        -1.730456         1.800754         1.717360
 C        -1.252688         3.204243         1.522557
 O        -0.511369         3.821703         2.653989
 C         0.763288         3.084586         2.782093
 C         1.263637         2.922915         1.347848
 C        -0.092133         2.688570         0.578944
 H         0.679433         0.003467         1.676724
 H        -2.290476         1.908366        -0.572524
 H        -2.542696         0.204734         0.447091
 H        -2.237505         1.379147         2.640816
 H        -2.053025         3.869617         1.135851
 H         1.261809         3.805449         3.558136
 H         0.469696         2.202639         3.236396
 H         1.615795         3.941274         1.218712
 H         2.001328         2.198929         1.150718
 H        -0.044839         2.984880        -0.457669
