19
Iteration:  4753
 O         0.146125         0.083804         0.878647
 C        -0.623163         1.220973         0.777929
 C        -2.066376         1.175417         0.375886
 C        -1.714078         1.882290         1.685349
 C        -1.213061         3.228075         1.465996
 O        -0.511474         3.802754         2.751128
 C         0.739044         3.131842         2.864729
 C         1.262645         2.999612         1.388303
 C        -0.022078         2.619035         0.562703
 H         0.710354         0.054702         1.745917
 H        -2.584974         1.523621        -0.609262
 H        -2.329834         0.177747         0.548992
 H        -2.114982         1.528941         2.725226
 H        -1.841745         3.992694         0.975034
 H         1.451589         3.670112         3.366266
 H         0.740660         2.165206         3.410838
 H         1.694997         3.876993         1.077554
 H         1.936671         2.250233         1.500043
 H         0.077204         2.954778        -0.466391
