19
Iteration:  4844
 O         0.025940         0.023191         0.829963
 C        -0.618570         1.289815         0.819607
 C        -1.968384         1.168847         0.381735
 C        -1.703117         1.797967         1.764670
 C        -1.151076         3.253801         1.500211
 O        -0.553370         3.761278         2.678015
 C         0.719654         3.189105         2.805380
 C         1.292879         3.011913         1.404555
 C         0.028086         2.630020         0.665724
 H         0.767025         0.122512         1.443196
 H        -2.232175         1.707858        -0.534098
 H        -2.619859         0.255944         0.420299
 H        -2.181671         1.198026         2.461059
 H        -1.747143         4.050149         0.993222
 H         1.351441         3.989277         3.391774
 H         0.680883         2.351476         3.506336
 H         1.589182         4.005959         0.987229
 H         2.060912         2.148014         1.370283
 H        -0.174480         2.982708        -0.465051
