19
Iteration:  4365charge 0 multiplicity 1
 O         0.095245         0.000226         0.851010
 C        -0.578411         1.198520         0.712141
 C        -2.063828         1.160418         0.408723
 C        -1.694417         1.837701         1.737337
 C        -1.185488         3.260149         1.504293
 O        -0.530391         3.720873         2.708847
 C         0.756436         3.260825         2.850575
 C         1.211860         2.959212         1.396899
 C         0.015531         2.700193         0.592631
 H         0.686375         0.300060         1.513818
 H        -2.528037         1.836840        -0.378556
 H        -2.484622         0.143179         0.478555
 H        -2.013454         1.430443         2.744527
 H        -1.957270         3.970425         1.071383
 H         1.275635         4.154104         3.438777
 H         0.730390         2.404082         3.598365
 H         1.818629         3.860179         0.947082
 H         1.922201         2.170648         1.386622
 H         0.221284         3.124231        -0.390101
