19
Iteration:   772charge 0 multiplicity 1
 O         0.098823         0.020240         1.073611
 C        -0.668225         1.134904         0.923958
 C        -2.024989         1.251398         0.346484
 C        -1.758154         1.956795         1.689936
 C        -1.103991         3.206900         1.484443
 O        -0.536402         3.634774         2.673490
 C         0.924780         3.359483         2.755864
 C         1.247996         3.019727         1.323007
 C        -0.074576         2.572209         0.652537
 H        -0.179912        -0.554500         0.376074
 H        -2.305720         1.891598        -0.569016
 H        -2.557345         0.235128         0.369947
 H        -2.224988         1.696075         2.569340
 H        -1.870852         3.947213         1.108490
 H         1.368664         4.295974         2.999331
 H         1.079536         2.486452         3.418620
 H         1.338062         3.987433         0.684270
 H         1.998598         2.273338         1.200271
 H         0.096655         2.702145        -0.404818
