19
Iteration:  2760charge 0 multiplicity 1
 O         0.108242         0.088269         1.012602
 C        -0.620797         1.272659         0.860736
 C        -1.973857         1.131866         0.408528
 C        -1.689006         1.871762         1.709192
 C        -1.149310         3.212333         1.485490
 O        -0.485604         3.766792         2.643749
 C         0.777364         3.021465         2.749773
 C         1.231869         3.046236         1.352562
 C        -0.144478         2.746124         0.534940
 H         0.347921         0.075994         1.993628
 H        -2.201469         1.684519        -0.466931
 H        -2.373194         0.256625         0.536471
 H        -2.133363         1.457473         2.590762
 H        -1.813704         4.038605         1.150936
 H         1.490927         3.430482         3.441323
 H         0.503400         2.009243         2.968469
 H         1.661815         3.952396         1.079483
 H         1.921463         2.213597         1.279027
 H        -0.293595         3.037450        -0.486353
