19
Iteration:   232charge 0 multiplicity 1
 O         0.173633         0.027949         1.135582
 C        -0.668736         1.183856         0.900554
 C        -2.093779         1.244368         0.363157
 C        -1.804063         1.850956         1.652087
 C        -1.130734         3.192859         1.467144
 O        -0.530708         3.727904         2.703822
 C         0.828073         3.295179         2.753681
 C         1.331877         3.035600         1.264298
 C        -0.037426         2.575826         0.614586
 H        -0.192611        -0.605100         0.514379
 H        -2.292984         1.933332        -0.477818
 H        -2.777742         0.337503         0.250539
 H        -2.453171         1.602782         2.606607
 H        -1.874454         3.915943         1.038720
 H         1.408334         4.125320         3.223984
 H         1.065434         2.417706         3.433679
 H         1.805219         4.002030         0.862050
 H         2.182947         2.245532         1.227740
 H        -0.004475         2.848114        -0.477352
