19
Iteration:  4435
 O         0.159117         0.059350         0.919951
 C        -0.555729         1.204816         0.768208
 C        -2.026602         1.179304         0.380756
 C        -1.725142         1.864740         1.765005
 C        -1.148927         3.256710         1.514190
 O        -0.528800         3.797071         2.717929
 C         0.685557         3.100458         2.843972
 C         1.187296         3.020568         1.348856
 C        -0.043401         2.637302         0.557356
 H         0.847189         0.300109         1.563691
 H        -2.312843         1.763595        -0.389484
 H        -2.518650         0.207373         0.413991
 H        -2.196158         1.563136         2.641523
 H        -1.748166         4.077852         1.120932
 H         1.411457         3.604328         3.381187
 H         0.679915         2.012560         3.253292
 H         1.611925         3.912015         0.842893
 H         1.998238         2.196129         1.148179
 H        -0.084738         2.957032        -0.515196
