19
Iteration:  3788
 O         0.096700        -0.013832         0.802552
 C        -0.631574         1.182168         0.807610
 C        -2.058189         1.219526         0.360779
 C        -1.679309         1.775547         1.800874
 C        -1.118781         3.190916         1.529002
 O        -0.503525         3.868657         2.718428
 C         0.726642         3.238439         2.821932
 C         1.290171         3.041145         1.375347
 C        -0.016203         2.613121         0.603083
 H         0.149283        -0.249752         1.730411
 H        -2.508284         1.880592        -0.508717
 H        -2.530825         0.256492         0.413006
 H        -2.084057         1.193299         2.582151
 H        -1.887577         3.877292         1.113479
 H         1.387863         3.994612         3.388770
 H         0.589124         2.458359         3.610801
 H         1.508892         4.039615         0.947892
 H         2.130012         2.317214         1.130661
 H        -0.141442         2.887940        -0.525151
