19
Iteration:  4038
 O         0.151180         0.068705         0.777382
 C        -0.572944         1.244173         0.820434
 C        -2.102848         1.177499         0.389551
 C        -1.657938         1.770261         1.838549
 C        -1.154385         3.194297         1.510636
 O        -0.531793         3.889013         2.644092
 C         0.725931         3.194392         2.847147
 C         1.203925         2.918952         1.403393
 C        -0.007647         2.657936         0.544525
 H         0.503757        -0.026993         1.689713
 H        -2.441876         1.859810        -0.395653
 H        -2.511806         0.191097         0.574939
 H        -2.078432         1.422714         2.736344
 H        -1.912009         4.029810         1.372147
 H         1.466522         3.630607         3.676245
 H         0.398871         2.229974         3.321555
 H         1.687287         3.772091         0.959931
 H         1.980363         2.169113         1.403280
 H         0.041600         2.975698        -0.538335
