19
Iteration:  4707charge 0 multiplicity 1
 O         0.088885        -0.055409         0.941781
 C        -0.600857         1.267105         0.873190
 C        -1.971580         1.277312         0.323796
 C        -1.786925         1.774932         1.714088
 C        -1.154386         3.213998         1.602515
 O        -0.544521         3.765963         2.700948
 C         0.751437         3.246254         2.801516
 C         1.253445         3.021536         1.337996
 C        -0.018095         2.651651         0.547734
 H         1.053496         0.148959         1.190762
 H        -2.262348         2.010649        -0.462180
 H        -2.581085         0.324918         0.173216
 H        -2.379493         1.193033         2.428968
 H        -1.914119         3.914890         1.220338
 H         1.478530         3.780538         3.427688
 H         0.632296         2.277500         3.299335
 H         1.745319         3.934415         0.970669
 H         1.981441         2.258904         1.341746
 H         0.107049         2.814906        -0.474517
