19
Iteration:  4521
 O         0.180572         0.028090         0.884626
 C        -0.643897         1.271216         0.843078
 C        -2.023812         1.285296         0.287453
 C        -1.740976         1.702475         1.728883
 C        -1.178688         3.139979         1.562657
 O        -0.462126         3.827446         2.655785
 C         0.764248         3.238141         2.774344
 C         1.213634         2.954458         1.423456
 C        -0.062216         2.670851         0.652023
 H         0.456226        -0.200229         1.844776
 H        -2.440361         1.883551        -0.617130
 H        -2.473229         0.217782         0.386786
 H        -2.129921         1.348370         2.604890
 H        -1.922915         3.857295         1.109263
 H         1.311068         3.952180         3.415669
 H         0.695395         2.377789         3.419093
 H         1.587072         3.878273         0.880974
 H         1.890680         2.175008         1.209979
 H        -0.151405         3.135819        -0.360878
