19
Iteration:  2473
 O         0.156735         0.174644         1.090879
 C        -0.676537         1.181528         0.812004
 C        -2.081471         1.124474         0.353752
 C        -1.738860         1.825992         1.687223
 C        -1.187714         3.237929         1.544499
 O        -0.484277         3.671597         2.758285
 C         0.881319         3.262749         2.737819
 C         1.251978         3.002366         1.280735
 C        -0.022768         2.663031         0.532908
 H        -0.316867        -0.615813         1.463475
 H        -2.382005         1.755899        -0.491535
 H        -2.609729         0.151071         0.372367
 H        -2.356643         1.383429         2.367990
 H        -1.796765         4.062892         1.179174
 H         1.531614         4.116517         3.248161
 H         0.934547         2.344320         3.295432
 H         1.664348         3.923585         0.793264
 H         1.862998         2.154133         1.110558
 H        -0.142548         3.072500        -0.498071
