19
Iteration:  3458charge 0 multiplicity 1
 O         0.125089         0.046269         0.823741
 C        -0.626227         1.260457         0.807295
 C        -2.092514         1.188357         0.419516
 C        -1.732035         1.858424         1.698283
 C        -1.168489         3.225627         1.500411
 O        -0.559836         3.739672         2.672466
 C         0.783070         3.263096         2.796341
 C         1.285360         2.900698         1.415872
 C         0.012778         2.633892         0.627263
 H         0.943539        -0.020318         1.323243
 H        -2.597981         1.735587        -0.364425
 H        -2.425872         0.226162         0.875393
 H        -2.078789         1.474311         2.698097
 H        -1.824022         3.966884         1.102988
 H         1.204058         4.107551         3.267313
 H         0.875246         2.437327         3.560321
 H         1.709910         3.805502         1.068234
 H         1.958788         1.987183         1.486914
 H        -0.103155         3.198455        -0.340623
