19
Iteration:  2310charge 0 multiplicity 1
 O         0.135445         0.053748         0.923217
 C        -0.664485         1.270764         0.772592
 C        -2.116486         1.146521         0.373712
 C        -1.712718         1.738089         1.740103
 C        -1.181486         3.153952         1.582731
 O        -0.547790         3.822053         2.603382
 C         0.889507         3.453322         2.839410
 C         1.294926         2.845622         1.438304
 C        -0.074527         2.688525         0.657682
 H         0.276176        -0.487124         0.169238
 H        -2.354630         1.833939        -0.573641
 H        -2.505585         0.168670         0.473805
 H        -1.954292         1.056077         2.609016
 H        -1.766481         3.927628         1.114894
 H         1.372559         4.435761         3.116302
 H         0.908435         2.615613         3.630459
 H         2.017097         3.581440         0.895882
 H         1.603566         1.827852         1.542276
 H         0.033562         2.934652        -0.446114
