19
Iteration:  3288charge 0 multiplicity 1
 O         0.128674         0.039544         0.905102
 C        -0.640543         1.177705         0.754152
 C        -2.039012         1.212509         0.438869
 C        -1.679525         1.817582         1.712036
 C        -1.103122         3.166146         1.485425
 O        -0.553502         3.869841         2.738156
 C         0.745179         3.137892         2.789623
 C         1.244234         3.036250         1.370987
 C        -0.008790         2.644239         0.569355
 H         0.245176        -0.096583         1.827597
 H        -2.361386         1.950863        -0.275406
 H        -2.570689         0.187057         0.418865
 H        -2.116989         1.365758         2.621590
 H        -1.766501         3.897542         1.146317
 H         1.403213         3.808614         3.448628
 H         0.517492         2.130897         3.175363
 H         1.568080         4.097016         0.974048
 H         2.056049         2.334536         1.213644
 H        -0.143188         2.930590        -0.485104
