19
Iteration:  2229
 O         0.178206         0.089918         0.989489
 C        -0.609549         1.191428         0.886821
 C        -1.999410         1.120224         0.344208
 C        -1.743439         1.819192         1.735993
 C        -1.166328         3.248004         1.561116
 O        -0.448154         3.889564         2.651825
 C         0.727343         3.163314         2.757887
 C         1.230239         2.997547         1.345216
 C        -0.111472         2.653532         0.612396
 H        -0.134665        -0.740593         0.580546
 H        -2.233230         1.822910        -0.405632
 H        -2.785154         0.228950         0.317583
 H        -2.114925         1.276462         2.547654
 H        -1.951691         3.941465         1.202612
 H         1.536384         3.670575         3.472228
 H         0.647775         2.198290         3.145313
 H         1.562089         3.893597         0.947046
 H         2.128098         2.286037         1.275886
 H        -0.005461         2.905000        -0.454775
