19
Iteration:  4527charge 0 multiplicity 1
 O         0.133063         0.055126         0.879828
 C        -0.576776         1.265520         0.832378
 C        -2.062593         1.228927         0.310177
 C        -1.726194         1.720115         1.679173
 C        -1.222289         3.141198         1.585062
 O        -0.479938         3.829666         2.624408
 C         0.759098         3.231431         2.793934
 C         1.238428         2.962438         1.402597
 C        -0.049160         2.663374         0.685985
 H         0.392983        -0.135458         1.775441
 H        -2.404475         1.982567        -0.447612
 H        -2.419901         0.279620         0.374878
 H        -2.063895         1.266757         2.684977
 H        -1.897398         3.865283         1.147629
 H         1.329495         4.046156         3.395243
 H         0.819965         2.339898         3.517942
 H         1.705298         3.884393         1.082292
 H         1.965626         2.138281         1.038027
 H         0.047838         3.082750        -0.308666
