19
Iteration:   553charge 0 multiplicity 1
 O         0.039112         0.133574         1.023689
 C        -0.607423         1.266640         0.753331
 C        -2.060516         1.162084         0.502337
 C        -1.675216         1.802092         1.809127
 C        -1.096517         3.235887         1.417570
 O        -0.563820         3.698225         2.623673
 C         0.795955         3.294002         2.843309
 C         1.249636         2.932739         1.370693
 C        -0.012620         2.589355         0.513539
 H        -0.162894        -0.654322         0.402779
 H        -2.466488         1.835110        -0.359348
 H        -2.470104         0.127780         0.371252
 H        -2.111468         1.622445         2.896090
 H        -1.623720         4.073714         0.927981
 H         1.312539         4.172210         3.201885
 H         1.085573         2.567754         3.633841
 H         1.813196         3.883774         0.969881
 H         2.033796         2.188636         1.536854
 H         0.114015         2.942628        -0.646793
