19
Iteration:   513charge 0 multiplicity 1
 O         0.176242         0.049828         1.088238
 C        -0.701696         1.186593         0.820298
 C        -2.030246         1.133120         0.377679
 C        -1.746150         1.839916         1.728281
 C        -1.159271         3.228375         1.571282
 O        -0.420392         3.968766         2.603369
 C         0.766541         3.150627         2.773908
 C         1.222843         2.916333         1.342404
 C        -0.086665         2.618421         0.570269
 H         0.790241         0.031266         0.390402
 H        -2.285159         1.935244        -0.348911
 H        -2.527370         0.273032         0.319286
 H        -2.362749         1.378550         2.610014
 H        -1.943108         3.903611         1.177288
 H         1.519375         3.607127         3.537648
 H         0.427808         2.208735         3.236727
 H         1.653642         3.817076         0.842685
 H         1.895601         2.075009         1.127620
 H        -0.189430         3.060415        -0.353405
