19
Iteration:  1194charge 0 multiplicity 1
 O        -0.016388         0.021203         0.912538
 C        -0.664856         1.222624         0.798091
 C        -2.077301         1.200582         0.442405
 C        -1.619927         1.756475         1.722816
 C        -1.157560         3.166973         1.486750
 O        -0.558605         3.792318         2.682040
 C         0.819183         3.432603         2.756898
 C         1.313415         2.977688         1.430301
 C         0.028659         2.565305         0.639544
 H         0.388880        -0.347498         0.147309
 H        -2.432822         1.876874        -0.313274
 H        -2.598413         0.154098         0.465962
 H        -1.948374         1.202838         2.659489
 H        -1.875827         3.861495         1.100911
 H         1.311977         4.317895         3.260732
 H         1.000897         2.758184         3.554732
 H         1.886694         3.737441         0.889226
 H         1.960001         2.071079         1.528801
 H         0.053915         2.947372        -0.318809
