19
Iteration:  1190
 O        -0.002679         0.004493         0.919255
 C        -0.667076         1.248120         0.797120
 C        -2.101393         1.200180         0.437383
 C        -1.637755         1.729972         1.726856
 C        -1.109398         3.152782         1.528708
 O        -0.552171         3.768930         2.667947
 C         0.785269         3.462738         2.747801
 C         1.330732         2.985911         1.438828
 C         0.049746         2.587671         0.637553
 H         0.328667        -0.449467         0.073150
 H        -2.442486         1.997997        -0.270134
 H        -2.576327         0.183273         0.501541
 H        -1.993827         1.366944         2.625706
 H        -1.868646         3.864638         1.058294
 H         1.280680         4.364010         3.112215
 H         0.889358         2.622339         3.546014
 H         1.834091         3.769363         0.905679
 H         1.905097         2.025179         1.559965
 H        -0.030841         2.934269        -0.466436
