19
Iteration:  4589charge 0 multiplicity 1
 O         0.121396         0.084023         0.790060
 C        -0.635494         1.201059         0.865910
 C        -2.032701         1.176087         0.398777
 C        -1.769484         1.833120         1.752923
 C        -1.163527         3.147208         1.503478
 O        -0.492092         3.863127         2.649016
 C         0.692198         3.211034         2.862774
 C         1.278770         2.984334         1.437156
 C        -0.016042         2.618291         0.596354
 H         0.990803         0.226377         1.122729
 H        -2.452118         1.620708        -0.433611
 H        -2.395263         0.080901         0.289984
 H        -2.194368         1.546772         2.783101
 H        -1.811853         3.948637         1.146183
 H         1.335610         3.754864         3.453547
 H         0.538399         2.219111         3.386302
 H         1.703103         3.903214         1.095269
 H         2.087006         2.181255         1.443546
 H         0.133254         2.777522        -0.518653
