19
Iteration:  4033
 O         0.142126         0.075287         0.792710
 C        -0.572540         1.268465         0.818213
 C        -2.105950         1.164388         0.403359
 C        -1.683914         1.703956         1.767590
 C        -1.146377         3.196832         1.533684
 O        -0.534420         3.922014         2.652246
 C         0.754125         3.211238         2.854922
 C         1.254778         2.891859         1.387443
 C        -0.034812         2.668342         0.585831
 H         0.536271         0.005564         1.708300
 H        -2.525583         1.883700        -0.303968
 H        -2.677250         0.190705         0.307049
 H        -2.062703         1.491861         2.890974
 H        -1.989324         3.813386         1.258524
 H         1.372986         3.620804         3.562730
 H         0.375903         2.240915         3.235862
 H         1.725820         3.866368         0.963614
 H         2.067442         2.126389         1.337886
 H         0.124158         3.010676        -0.495508
