19
Iteration:  4330
 O         0.112209         0.008032         0.756189
 C        -0.645383         1.210671         0.874661
 C        -1.987245         1.212743         0.392706
 C        -1.759872         1.770177         1.762571
 C        -1.242116         3.213121         1.546424
 O        -0.519358         3.821323         2.650188
 C         0.719312         3.276945         2.822452
 C         1.299110         2.972526         1.420055
 C         0.028800         2.610977         0.669882
 H         0.853567         0.153312         1.310045
 H        -2.297351         1.921994        -0.397618
 H        -2.565168         0.152516         0.250598
 H        -2.228995         1.484324         2.621713
 H        -1.896089         4.026622         1.197382
 H         1.394135         3.975274         3.416083
 H         0.788917         2.301097         3.287721
 H         1.592742         3.886279         0.948293
 H         1.980068         2.258793         1.155388
 H         0.189721         2.824670        -0.352712
