19
Iteration:  3955
 O         0.051141         0.055743         0.825024
 C        -0.613217         1.246013         0.843680
 C        -2.071388         1.165146         0.388773
 C        -1.813819         1.749475         1.718669
 C        -1.159186         3.178382         1.479475
 O        -0.509552         3.739825         2.710877
 C         0.859842         3.293345         2.870560
 C         1.302027         3.073346         1.360212
 C        -0.009502         2.595562         0.634917
 H         0.730683         0.105900         1.458664
 H        -2.420933         1.779248        -0.474433
 H        -2.642903         0.103535         0.303312
 H        -2.405121         1.476666         2.581465
 H        -1.869146         3.914329         1.094517
 H         1.468154         4.112113         3.108860
 H         1.012148         2.471678         3.635584
 H         1.814895         3.995058         1.055350
 H         2.035918         2.184351         1.352609
 H        -0.077360         2.971878        -0.441575
