19
Iteration:  2246charge 0 multiplicity 1
 O         0.224394         0.133812         0.962100
 C        -0.648668         1.198561         0.874785
 C        -2.082008         1.236342         0.344514
 C        -1.802468         1.766578         1.776700
 C        -1.188044         3.198368         1.572783
 O        -0.516972         3.854824         2.654872
 C         0.844160         3.226322         2.821752
 C         1.268312         2.981152         1.333275
 C         0.007161         2.520805         0.602241
 H        -0.278546        -0.562138         0.449771
 H        -2.495172         1.714324        -0.602374
 H        -2.318464         0.219931         0.390331
 H        -2.456704         1.501789         2.688239
 H        -1.804647         3.893784         0.951143
 H         1.333832         4.040471         3.258144
 H         0.543143         2.231970         3.342445
 H         1.595387         4.028435         0.943047
 H         1.994820         2.219318         1.082416
 H         0.048017         2.825403        -0.470349
