19
Iteration:  1409
 O         0.161187         0.039652         0.905558
 C        -0.575872         1.209642         0.870439
 C        -2.112126         1.260482         0.495933
 C        -1.701918         1.826084         1.798650
 C        -1.132347         3.204667         1.494531
 O        -0.578805         3.795221         2.589838
 C         0.748456         3.278394         2.801274
 C         1.237281         2.950658         1.402536
 C         0.040394         2.571730         0.565121
 H        -0.075263        -0.491866         0.180695
 H        -2.475992         1.810409        -0.336044
 H        -2.722205         0.355029         0.597174
 H        -2.010253         1.514683         2.870376
 H        -1.917645         3.843821         0.929595
 H         1.403809         4.061151         3.094863
 H         0.835878         2.288191         3.515398
 H         1.604404         3.945712         1.063986
 H         2.217935         2.278853         1.365163
 H         0.029547         2.880244        -0.539192
