19
Iteration:  1587
 O         0.066740         0.104620         1.095614
 C        -0.583430         1.206542         0.775090
 C        -2.075779         1.139459         0.428291
 C        -1.822791         1.855102         1.731062
 C        -1.181252         3.238367         1.534129
 O        -0.524910         3.714884         2.692711
 C         0.776614         3.235640         2.758334
 C         1.329732         3.011159         1.332570
 C        -0.009295         2.608108         0.501539
 H         0.663874         0.001369         0.355934
 H        -2.300627         1.711214        -0.413139
 H        -2.567106         0.116723         0.509905
 H        -1.896115         1.495469         2.743301
 H        -1.742409         4.112389         1.020330
 H         1.419118         3.807601         3.384787
 H         0.821657         2.320042         3.211242
 H         1.607992         4.068651         1.009888
 H         2.182383         2.237572         1.218030
 H         0.180127         2.945908        -0.569241
