19
Iteration:  4051
 O         0.164650         0.049280         0.763905
 C        -0.636189         1.226112         0.797400
 C        -1.987833         1.224513         0.497123
 C        -1.617489         1.856058         1.779479
 C        -1.172668         3.282477         1.547693
 O        -0.519586         3.830264         2.639464
 C         0.656907         3.114024         2.830454
 C         1.208416         2.964560         1.416161
 C        -0.056052         2.608651         0.560339
 H         0.606076        -0.131292         1.624341
 H        -2.472666         1.694116        -0.400079
 H        -2.536802         0.169305         0.589367
 H        -2.041698         1.485273         2.637814
 H        -1.899580         3.874685         0.936144
 H         1.295827         3.932422         3.313897
 H         0.624387         2.173230         3.387549
 H         1.686834         3.847536         1.171162
 H         1.891116         2.091893         1.351175
 H         0.037946         2.941017        -0.410552
