19
Iteration:  2773
 O         0.136968         0.069690         1.007622
 C        -0.578162         1.254696         0.831780
 C        -2.012909         1.083300         0.344222
 C        -1.703289         1.857797         1.735146
 C        -1.218992         3.349096         1.539937
 O        -0.455699         3.806981         2.707198
 C         0.698540         3.034492         2.765929
 C         1.215301         2.988449         1.240887
 C        -0.021553         2.729777         0.567908
 H         0.233758        -0.194137         1.909227
 H        -2.424654         1.490291        -0.567996
 H        -2.469142         0.092089         0.579659
 H        -2.119569         1.610305         2.716693
 H        -1.930977         4.039860         1.220648
 H         1.254245         3.535128         3.474492
 H         0.634624         2.020067         3.257163
 H         1.590429         3.938924         0.986528
 H         1.914948         2.232837         0.925451
 H         0.125610         3.105666        -0.444523
