19
Iteration:  2115charge 0 multiplicity 1
 O         0.124485         0.013839         1.069542
 C        -0.652438         1.219075         0.813846
 C        -2.100649         1.271531         0.386137
 C        -1.699047         1.767275         1.801164
 C        -1.225651         3.182694         1.594154
 O        -0.504034         3.766051         2.611642
 C         0.797626         3.210794         2.710480
 C         1.298913         3.031357         1.364203
 C        -0.033511         2.642941         0.537960
 H         0.656878        -0.246513         0.321217
 H        -2.343193         2.045164        -0.383843
 H        -2.566333         0.323875         0.129606
 H        -2.089404         1.282193         2.695216
 H        -2.015681         3.846660         1.082334
 H         1.321975         4.015311         3.367678
 H         0.786763         2.436131         3.350210
 H         1.729815         3.951517         0.835541
 H         2.134143         2.377041         1.526974
 H         0.084537         3.041513        -0.504010
