19
Iteration:  2283
 O         0.142142         0.047615         0.941625
 C        -0.630171         1.266841         0.805088
 C        -2.100323         1.186563         0.375026
 C        -1.624901         1.831028         1.745299
 C        -1.135358         3.209973         1.541851
 O        -0.637349         3.746656         2.756649
 C         0.806508         3.392753         2.811974
 C         1.262027         2.885041         1.362329
 C        -0.003696         2.645259         0.505062
 H        -0.178038        -0.720532         0.497730
 H        -2.505017         1.677524        -0.433227
 H        -2.385594         0.084024         0.530524
 H        -2.063269         1.465827         2.613164
 H        -1.889724         3.983137         1.149278
 H         1.402824         4.383471         3.140318
 H         1.036249         2.688954         3.568753
 H         1.908353         3.564127         0.931569
 H         1.784929         1.865368         1.447393
 H         0.174388         2.758946        -0.565237
