19
Iteration:  1549charge 0 multiplicity 1
 O         0.112153        -0.013678         1.115941
 C        -0.653196         1.164557         0.860987
 C        -2.025362         1.225041         0.338046
 C        -1.760721         1.756230         1.706757
 C        -1.181047         3.196461         1.540436
 O        -0.479229         3.817673         2.677951
 C         0.794830         3.208269         2.734887
 C         1.274446         3.132169         1.283675
 C        -0.019120         2.653259         0.594699
 H         0.073672        -0.685631         0.466496
 H        -2.090226         1.980434        -0.492882
 H        -2.704676         0.385789         0.110765
 H        -2.128711         1.337524         2.689078
 H        -1.901587         3.990779         1.311470
 H         1.396198         3.915801         3.399229
 H         0.751127         2.171296         3.234974
 H         1.623111         4.089074         0.920931
 H         2.130933         2.372644         1.160859
 H        -0.179656         3.009579        -0.400017
