19
Iteration:   242charge 0 multiplicity 1
 O         0.091388         0.043359         1.102265
 C        -0.602570         1.155846         0.885974
 C        -2.115208         1.205328         0.352508
 C        -1.784889         1.846850         1.745238
 C        -1.183538         3.196645         1.449017
 O        -0.564737         3.709896         2.703819
 C         0.873609         3.344774         2.742315
 C         1.380835         3.061718         1.345739
 C         0.023149         2.603999         0.531524
 H         0.149816        -0.662812         0.393971
 H        -2.395053         1.864866        -0.453920
 H        -2.738281         0.222995         0.496139
 H        -2.611702         1.749650         2.647438
 H        -1.731746         4.117282         1.221666
 H         1.310078         4.155169         3.393990
 H         0.798332         2.341881         3.227162
 H         1.907508         3.833264         0.740887
 H         1.971232         2.082508         1.244681
 H         0.071802         2.724445        -0.619217
