19
Iteration:  4071charge 0 multiplicity 1
 O         0.166465         0.043612         0.795379
 C        -0.653188         1.270444         0.833249
 C        -2.083371         1.178258         0.471599
 C        -1.713545         1.839767         1.812501
 C        -1.181108         3.211486         1.465998
 O        -0.576903         3.820213         2.667916
 C         0.724521         3.144586         2.845353
 C         1.273904         2.956741         1.403732
 C         0.062157         2.680070         0.551437
 H         0.877848        -0.034631         1.387129
 H        -2.575161         1.704343        -0.347122
 H        -2.461727         0.114027         0.498485
 H        -2.084390         1.494133         2.713066
 H        -1.784314         4.080912         1.032733
 H         1.483775         3.754800         3.538237
 H         0.526754         2.103428         3.226623
 H         1.714264         3.854368         0.975495
 H         1.953130         2.104351         1.280696
 H         0.013795         3.092891        -0.522137
