19
Iteration:  3479charge 0 multiplicity 1
 O         0.135110         0.077135         0.806371
 C        -0.635059         1.235550         0.786977
 C        -2.072137         1.119837         0.436877
 C        -1.684257         1.889393         1.797060
 C        -1.151179         3.296304         1.498803
 O        -0.565011         3.809883         2.720738
 C         0.774818         3.229252         2.881989
 C         1.203544         2.872131         1.402203
 C        -0.017889         2.603174         0.494518
 H         1.056089         0.328449         1.188624
 H        -2.381376         1.811787        -0.348277
 H        -2.384417         0.013671         0.462688
 H        -2.176952         1.515720         2.765183
 H        -1.755886         3.929094         0.937592
 H         1.374753         4.017711         3.319887
 H         0.786743         2.303281         3.506232
 H         1.796884         3.711970         1.082168
 H         1.790374         1.860750         1.535316
 H         0.004097         2.833572        -0.661027
