19
Iteration:  2544charge 0 multiplicity 1
 O         0.073649         0.049121         1.108029
 C        -0.607196         1.217476         0.768558
 C        -2.036583         1.184501         0.385743
 C        -1.714104         1.691895         1.773399
 C        -1.172716         3.247941         1.583858
 O        -0.501529         3.888806         2.666706
 C         0.821485         3.161696         2.722142
 C         1.242938         2.989501         1.273361
 C        -0.069265         2.692922         0.592000
 H         0.760709        -0.040717         0.384760
 H        -2.441732         1.856055        -0.466790
 H        -2.518663         0.176350         0.347362
 H        -2.204681         1.223761         2.713124
 H        -1.821976         4.058432         1.210235
 H         1.421268         3.738392         3.283233
 H         0.704647         2.266776         3.204412
 H         1.592990         3.901062         0.824029
 H         2.003364         2.120652         1.199132
 H         0.025603         2.928637        -0.466107
