19
Iteration:   613charge 0 multiplicity 1
 O         0.194491         0.137342         0.911379
 C        -0.610343         1.184657         0.950601
 C        -2.062574         1.304053         0.349707
 C        -1.702339         1.728048         1.798907
 C        -1.209740         3.180833         1.587548
 O        -0.508840         3.859741         2.509913
 C         0.804078         3.251502         2.789390
 C         1.226935         2.906411         1.375391
 C        -0.047846         2.542879         0.627453
 H        -0.403474        -0.627065         0.982128
 H        -2.174982         1.977436        -0.389436
 H        -2.742498         0.431041         0.347272
 H        -2.160516         1.533005         2.681555
 H        -1.786230         3.977996         1.111319
 H         1.427875         4.127685         3.154116
 H         0.661557         2.401206         3.451298
 H         1.687360         3.668140         0.851810
 H         1.965463         2.058468         1.463791
 H         0.035930         2.785719        -0.337473
