19
Iteration:  2048
 O         0.233620         0.128614         0.925300
 C        -0.608239         1.224655         0.852417
 C        -2.059990         1.214081         0.437241
 C        -1.765822         1.803879         1.840360
 C        -1.125803         3.207705         1.559658
 O        -0.540179         3.880402         2.608930
 C         0.727459         3.191268         2.732712
 C         1.257649         2.865821         1.383943
 C        -0.046853         2.612197         0.589809
 H        -0.218856        -0.614331         0.458973
 H        -2.341023         1.816490        -0.409682
 H        -2.517431         0.127690         0.320683
 H        -2.284778         1.520829         2.717892
 H        -1.816315         3.969437         1.005980
 H         1.493970         3.816109         3.284584
 H         0.699682         2.321565         3.276382
 H         1.758593         3.828337         0.994463
 H         1.994583         2.084802         1.311017
 H        -0.145990         3.020409        -0.449293
