19
Iteration:  2845charge 0 multiplicity 1
 O         0.028491        -0.045474         0.819963
 C        -0.633588         1.184106         0.806129
 C        -2.005786         1.091746         0.331957
 C        -1.690700         1.805629         1.706961
 C        -1.089772         3.241696         1.587432
 O        -0.527443         3.855572         2.722271
 C         0.791571         3.377526         2.817786
 C         1.240882         2.972905         1.374385
 C        -0.057468         2.619331         0.663466
 H         0.804123         0.262452         1.327561
 H        -2.474437         1.781670        -0.454662
 H        -2.447907         0.182637         0.479646
 H        -2.318112         1.407607         2.477588
 H        -1.832587         3.989294         1.151235
 H         1.506911         4.069929         3.428610
 H         0.680473         2.558356         3.542706
 H         1.886707         3.705165         0.757813
 H         1.855797         2.030523         1.329057
 H        -0.090641         2.995772        -0.368393
