19
Iteration:   489
 O         0.159103         0.129450         1.112601
 C        -0.693428         1.282107         0.880341
 C        -2.051850         1.202505         0.380553
 C        -1.703384         1.785064         1.776322
 C        -1.176563         3.307306         1.518153
 O        -0.423643         3.830516         2.554681
 C         0.738090         3.063086         2.764623
 C         1.208961         2.954267         1.357750
 C        -0.053076         2.574967         0.554649
 H         0.813170         0.078821         0.393604
 H        -2.379288         1.778822        -0.526334
 H        -2.453271         0.171162         0.423044
 H        -2.309299         1.248026         2.659753
 H        -1.872200         3.997027         1.023062
 H         1.352050         3.812379         3.334350
 H         0.699322         2.163680         3.426545
 H         1.635647         3.912961         0.851421
 H         1.952461         2.161503         1.267037
 H        -0.176550         2.753388        -0.502194
