19
Iteration:  1093
 O         0.253372         0.260832         0.983105
 C        -0.595737         1.276631         0.781207
 C        -2.091847         1.166100         0.521099
 C        -1.635453         1.827181         1.779844
 C        -1.111663         3.264700         1.431281
 O        -0.583667         3.860593         2.678878
 C         0.726575         2.992110         2.808860
 C         1.231390         2.868870         1.286867
 C        -0.064721         2.586972         0.474449
 H        -0.278107        -0.586118         1.261799
 H        -2.504051         1.914540        -0.282098
 H        -2.592394         0.206765         0.729878
 H        -2.039975         1.602435         2.731752
 H        -1.785979         4.073945         1.073507
 H         1.218084         3.708591         3.429984
 H         0.320089         2.181363         3.307719
 H         1.667737         3.813660         1.103243
 H         1.975495         1.981794         1.355224
 H         0.063303         2.843043        -0.503704
