19
Iteration:  1576
 O         0.066564         0.031738         1.096556
 C        -0.633490         1.255883         0.833622
 C        -1.996610         1.248373         0.425611
 C        -1.719996         1.856137         1.775379
 C        -1.192076         3.243129         1.470279
 O        -0.569228         3.684711         2.695159
 C         0.787465         3.168491         2.730179
 C         1.254690         3.049246         1.287108
 C         0.054270         2.593992         0.535846
 H         0.593288        -0.314466         0.407644
 H        -2.398708         1.849110        -0.340452
 H        -2.323610         0.188161         0.335450
 H        -2.187944         1.602779         2.710745
 H        -1.957754         4.065376         1.280774
 H         1.256000         4.003092         3.188977
 H         0.822870         2.307669         3.292934
 H         1.651080         4.026670         0.866863
 H         2.199289         2.420286         1.267523
 H        -0.014711         2.863752        -0.557592
