19
Iteration:  4279
 O         0.078771         0.073451         0.815026
 C        -0.624265         1.303327         0.800537
 C        -2.008759         1.182914         0.468172
 C        -1.692401         1.762666         1.760725
 C        -1.209988         3.207148         1.543975
 O        -0.578702         3.801361         2.614064
 C         0.739581         3.166040         2.839984
 C         1.259922         2.962875         1.439545
 C         0.024597         2.667727         0.542043
 H         0.659547         0.169329         1.615020
 H        -2.499453         1.771037        -0.260821
 H        -2.198317         0.147176         0.431386
 H        -1.773835         1.387610         2.766646
 H        -1.806216         3.995888         0.996919
 H         1.405380         3.896237         3.377697
 H         0.782091         2.149647         3.252064
 H         1.968821         3.822502         0.963288
 H         1.892071         1.993390         1.554961
 H        -0.052367         3.102853        -0.503420
