19
Iteration:  3305
 O         0.183187         0.067351         0.919601
 C        -0.597971         1.310040         0.883890
 C        -2.077132         1.238541         0.345216
 C        -1.664821         1.790318         1.784899
 C        -1.237643         3.246504         1.596538
 O        -0.475988         3.789565         2.552995
 C         0.697436         3.073535         2.837247
 C         1.233195         2.966018         1.326708
 C        -0.038787         2.658213         0.580954
 H         0.566635         0.045098         1.774011
 H        -2.486913         1.782326        -0.543852
 H        -2.500480         0.270511         0.451535
 H        -2.124805         1.285813         2.706682
 H        -2.035003         4.033824         1.137071
 H         1.308238         3.690600         3.414054
 H         0.502229         2.046603         3.285972
 H         1.648033         3.867662         1.020500
 H         2.115408         2.304990         1.159462
 H         0.174810         3.029225        -0.431234
