19
Iteration:  3343charge 0 multiplicity 1
 O         0.225227         0.105832         0.941388
 C        -0.695897         1.239278         0.817472
 C        -2.093365         1.117907         0.389215
 C        -1.715325         1.924332         1.702108
 C        -1.157713         3.332789         1.555929
 O        -0.544753         3.764520         2.695329
 C         0.726267         3.102898         2.798376
 C         1.235858         2.875153         1.336466
 C        -0.005591         2.671919         0.571369
 H         1.065196         0.484825         1.268814
 H        -2.473112         1.471124        -0.599337
 H        -2.504314         0.143829         0.708590
 H        -2.224159         1.427366         2.465424
 H        -1.826573         4.123208         1.222720
 H         1.350712         3.726314         3.553879
 H         0.756767         2.213057         3.375250
 H         1.711052         3.832398         0.838077
 H         1.860999         1.996395         1.217375
 H         0.114629         2.949996        -0.483024
