19
Iteration:  3673
 O         0.146289         0.049382         0.875597
 C        -0.567037         1.255816         0.791144
 C        -2.067700         1.201569         0.506682
 C        -1.704659         1.884503         1.729924
 C        -1.153237         3.240327         1.545186
 O        -0.560546         3.785624         2.624691
 C         0.689102         3.065334         2.845045
 C         1.273026         3.003242         1.353239
 C        -0.009271         2.646887         0.495580
 H         0.645119         0.060050         1.751196
 H        -2.430337         1.773700        -0.359036
 H        -2.547160         0.279872         0.613367
 H        -2.028017         1.481633         2.642708
 H        -1.874577         4.023038         1.262048
 H         1.333707         3.614224         3.514649
 H         0.553944         2.118030         3.341966
 H         1.585443         4.031950         1.134679
 H         2.006648         2.264658         1.161852
 H         0.112175         2.884379        -0.472449
