19
Iteration:  2564
 O         0.115151         0.103949         1.039599
 C        -0.593966         1.303139         0.813248
 C        -2.129250         1.183880         0.452109
 C        -1.598182         1.787878         1.762495
 C        -1.194096         3.189443         1.539583
 O        -0.479971         3.795342         2.577088
 C         0.744213         3.210399         2.819874
 C         1.240008         2.867255         1.301489
 C        -0.087238         2.695823         0.541204
 H         0.879385         0.113085         0.378134
 H        -2.515039         1.878606        -0.383512
 H        -2.544263         0.086305         0.487770
 H        -1.870985         1.404312         2.818225
 H        -1.955051         3.828539         1.204351
 H         1.291616         3.957624         3.371248
 H         0.591016         2.311873         3.427238
 H         1.910548         3.641120         0.953079
 H         1.882084         1.962381         1.425558
 H        -0.158891         3.040547        -0.500249
