19
Iteration:   923charge 0 multiplicity 1
 O         0.106141         0.041281         0.945848
 C        -0.594891         1.223384         0.832636
 C        -2.061559         1.225984         0.419810
 C        -1.702208         1.714604         1.790847
 C        -1.154990         3.231136         1.539679
 O        -0.513819         3.909718         2.557226
 C         0.787904         3.325806         2.806134
 C         1.266725         2.832928         1.392504
 C        -0.039831         2.635267         0.633555
 H        -0.107449        -0.440775         0.099271
 H        -2.596876         1.830147        -0.256762
 H        -2.547201         0.234123         0.533145
 H        -1.951037         1.187134         2.682129
 H        -1.925662         3.970799         1.202248
 H         1.361285         4.101420         3.290892
 H         0.780342         2.502184         3.453416
 H         1.793172         3.624743         0.854644
 H         1.902839         2.022818         1.319614
 H         0.055455         2.951462        -0.399762
