19
Iteration:  1361charge 0 multiplicity 1
 O         0.020292         0.018840         1.105098
 C        -0.648645         1.233122         0.767564
 C        -1.992020         1.199191         0.314871
 C        -1.668621         1.743894         1.746578
 C        -1.204562         3.195323         1.606953
 O        -0.480888         3.792529         2.654768
 C         0.826609         3.319842         2.769648
 C         1.261673         2.914234         1.328264
 C        -0.094185         2.672956         0.612127
 H         0.672978        -0.071670         0.334283
 H        -2.317724         1.907033        -0.534268
 H        -2.481805         0.223018         0.260825
 H        -2.153689         1.323894         2.574977
 H        -1.898318         3.893684         1.163733
 H         1.492949         4.245210         3.131779
 H         1.002192         2.504410         3.459115
 H         1.609031         3.939873         0.896623
 H         1.991772         2.172756         1.008896
 H        -0.063479         2.996313        -0.385927
