19
Iteration:   619
 O         0.206385         0.123879         0.937790
 C        -0.645654         1.176612         0.872373
 C        -2.062856         1.299683         0.418499
 C        -1.685381         1.733010         1.813565
 C        -1.228122         3.210161         1.532523
 O        -0.541485         3.861268         2.546097
 C         0.794438         3.246905         2.758949
 C         1.289197         2.868091         1.394884
 C        -0.019672         2.575809         0.626628
 H        -0.316029        -0.657362         0.987399
 H        -2.287663         2.127282        -0.408946
 H        -2.695594         0.437353         0.335622
 H        -2.264124         1.445883         2.775484
 H        -1.940655         3.898103         1.022673
 H         1.426918         3.987419         3.223821
 H         0.597720         2.457747         3.518037
 H         1.792733         3.805121         0.910648
 H         1.974982         2.044361         1.243074
 H         0.029931         2.835527        -0.551292
