19
Iteration:   583
 O         0.174699        -0.007160         0.909892
 C        -0.596392         1.163498         0.807713
 C        -2.106956         1.163366         0.384575
 C        -1.782135         1.778866         1.730147
 C        -1.210535         3.275187         1.578236
 O        -0.574799         3.927645         2.667903
 C         0.886658         3.303083         2.779856
 C         1.344366         2.931748         1.328429
 C        -0.042439         2.572447         0.681657
 H        -0.385479        -0.783116         0.883944
 H        -2.309784         1.761639        -0.496121
 H        -2.795466         0.176005         0.474067
 H        -2.457772         1.652091         2.589369
 H        -1.709775         4.129215         1.040728
 H         1.477994         4.143806         3.144040
 H         0.938975         2.436669         3.511893
 H         1.758620         3.809564         0.854836
 H         2.151503         2.160291         1.453169
 H         0.078037         2.993129        -0.378985
