19
Iteration:  3753
 O         0.091723         0.016843         0.794260
 C        -0.646981         1.294563         0.822754
 C        -2.030965         1.226400         0.408450
 C        -1.724993         1.783729         1.803739
 C        -1.148562         3.191385         1.529392
 O        -0.559524         3.768054         2.668555
 C         0.701299         3.295685         2.870833
 C         1.341319         2.925423         1.356819
 C         0.012683         2.629284         0.562965
 H         0.675292        -0.026977         1.582513
 H        -2.455872         1.892752        -0.419030
 H        -2.497005         0.159427         0.671171
 H        -2.250679         1.236705         2.663473
 H        -1.833728         4.002535         1.160421
 H         1.447946         4.072762         3.135833
 H         0.792394         2.396320         3.510906
 H         1.779043         3.764733         0.823158
 H         2.100415         2.168607         1.442627
 H        -0.070193         3.078680        -0.435665
