19
Iteration:  2886
 O         0.047885         0.009768         0.768839
 C        -0.637754         1.192342         0.837183
 C        -2.057909         1.286023         0.434819
 C        -1.613975         1.739432         1.841344
 C        -1.061984         3.188620         1.525003
 O        -0.589995         3.841134         2.603613
 C         0.695235         3.295078         2.829020
 C         1.274898         3.005780         1.379951
 C         0.010710         2.545460         0.640470
 H         0.684553        -0.239773         1.431175
 H        -2.547499         1.961564        -0.417457
 H        -2.479882         0.292342         0.493081
 H        -2.185442         1.461732         2.695862
 H        -1.618242         3.867703         0.952971
 H         1.149626         4.009425         3.566373
 H         0.833317         2.324624         3.378651
 H         1.720691         3.922545         0.853803
 H         2.156217         2.378855         1.481739
 H        -0.102397         2.835736        -0.449339
