19
Iteration:  4303
 O         0.150317        -0.016838         0.800330
 C        -0.676420         1.170938         0.796856
 C        -2.054745         1.221898         0.381886
 C        -1.633057         1.750677         1.744782
 C        -1.136399         3.179029         1.579428
 O        -0.549766         3.918531         2.667827
 C         0.705445         3.208620         2.878070
 C         1.215839         2.972868         1.397112
 C         0.024674         2.655386         0.609314
 H         0.767521         0.191104         1.473254
 H        -2.369472         1.877527        -0.441203
 H        -2.586168         0.395441         0.541601
 H        -2.290739         1.357229         2.621124
 H        -1.791291         3.957465         1.124908
 H         1.391652         3.886005         3.297887
 H         0.624219         2.266073         3.403716
 H         1.587067         3.971838         1.045460
 H         1.961241         2.137209         1.060513
 H         0.005276         3.080620        -0.463886
