19
Iteration:  3455
 O         0.118701         0.041968         0.822899
 C        -0.603089         1.262055         0.816452
 C        -2.111710         1.186864         0.403393
 C        -1.746221         1.857752         1.709312
 C        -1.147956         3.216293         1.520530
 O        -0.561639         3.747452         2.669683
 C         0.788081         3.260804         2.820207
 C         1.290413         2.917440         1.406604
 C         0.009000         2.638234         0.620344
 H         0.887681         0.032367         1.397390
 H        -2.667676         1.763312        -0.359567
 H        -2.423168         0.127063         0.747628
 H        -2.122627         1.387846         2.729750
 H        -1.781313         3.898409         0.925299
 H         1.259547         4.184662         3.244771
 H         0.876599         2.373542         3.474849
 H         1.805852         3.847780         1.060136
 H         1.951852         1.991759         1.499584
 H        -0.192536         3.150741        -0.364490
