19
Iteration:  4372charge 0 multiplicity 1
 O         0.137090         0.013460         0.877213
 C        -0.641688         1.238599         0.709304
 C        -2.105334         1.170889         0.371160
 C        -1.634484         1.807343         1.725424
 C        -1.184042         3.278231         1.529723
 O        -0.574644         3.756711         2.678880
 C         0.805053         3.187908         2.887800
 C         1.235046         2.987723         1.375968
 C         0.004087         2.694259         0.594785
 H         0.774582         0.047072         1.652622
 H        -2.534131         1.706454        -0.466462
 H        -2.675235         0.104124         0.627768
 H        -2.029636         1.383678         2.567235
 H        -1.930626         3.973837         1.235637
 H         1.294552         4.091779         3.160871
 H         0.754746         2.460970         3.635395
 H         1.722275         3.803390         1.106295
 H         1.951166         2.132709         1.472395
 H         0.179635         3.055037        -0.421032
