19
Iteration:  2641
 O         0.149207         0.040451         0.780323
 C        -0.647593         1.178541         0.818537
 C        -2.096575         1.260889         0.460683
 C        -1.565736         1.742285         1.856986
 C        -1.094359         3.196953         1.530795
 O        -0.531442         3.903860         2.584255
 C         0.675254         3.310683         2.839926
 C         1.257868         2.943307         1.359882
 C         0.009211         2.587913         0.592159
 H        -0.063756        -0.656110         1.442159
 H        -2.539314         2.061266        -0.245076
 H        -2.627817         0.352204         0.462758
 H        -2.124849         1.198630         2.673273
 H        -1.898227         3.725213         1.172172
 H         1.117825         3.906969         3.573400
 H         0.366580         2.345849         3.425983
 H         1.766065         3.791669         1.014034
 H         1.879531         2.035415         1.373960
 H         0.045006         2.954212        -0.437361
