19
Iteration:  3866charge 0 multiplicity 1
 O         0.207236         0.116756         0.905908
 C        -0.668278         1.260890         0.810264
 C        -2.159112         1.066390         0.430964
 C        -1.766777         1.875352         1.703507
 C        -1.115582         3.280514         1.517923
 O        -0.494956         3.746486         2.668744
 C         0.767031         3.073138         2.844637
 C         1.258856         2.954110         1.356131
 C        -0.027005         2.688338         0.586266
 H         0.950087         0.399453         1.397045
 H        -2.603709         1.609918        -0.510785
 H        -2.579388         0.054862         0.388419
 H        -2.162188         1.764958         2.665166
 H        -1.735014         4.125008         1.151150
 H         1.371951         3.830236         3.384323
 H         0.532959         2.136115         3.441460
 H         1.614690         3.903558         0.956755
 H         2.157518         2.246755         1.185586
 H        -0.159791         3.191516        -0.444669
