19
Iteration:  3573
 O         0.036089         0.061491         0.864179
 C        -0.573733         1.247271         0.850609
 C        -2.138478         1.134312         0.355282
 C        -1.751219         1.786170         1.708410
 C        -1.131511         3.215852         1.539607
 O        -0.538346         3.747011         2.673686
 C         0.818663         3.247544         2.822767
 C         1.256632         3.019994         1.388479
 C         0.025590         2.626684         0.633045
 H         0.819114         0.160830         1.380691
 H        -2.399435         1.709976        -0.491499
 H        -2.416995         0.046571         0.450053
 H        -2.199375         1.358303         2.690115
 H        -1.631224         4.108948         0.989861
 H         1.458126         4.105983         3.214263
 H         1.017156         2.407493         3.522953
 H         1.613300         3.935811         0.875160
 H         1.872523         2.215926         1.269035
 H         0.075807         3.138944        -0.280274
