19
Iteration:  2275charge 0 multiplicity 1
 O         0.179719         0.073633         0.941397
 C        -0.595091         1.206178         0.834849
 C        -2.102788         1.203321         0.407467
 C        -1.671465         1.833033         1.750224
 C        -1.172955         3.256824         1.521956
 O        -0.600819         3.703162         2.726469
 C         0.801092         3.390131         2.811355
 C         1.274557         2.925003         1.377587
 C        -0.030471         2.586468         0.502398
 H        -0.355604        -0.535678         0.481132
 H        -2.451598         1.717429        -0.581732
 H        -2.721732         0.284066         0.514482
 H        -2.029805         1.374783         2.696253
 H        -1.771384         3.918507         0.927963
 H         1.344118         4.289032         3.297243
 H         0.968768         2.631112         3.597364
 H         2.050480         3.611176         0.946686
 H         1.804301         1.970865         1.320924
 H         0.119773         2.963542        -0.542879
