19
Iteration:  1803
 O         0.196776         0.091297         1.036044
 C        -0.656279         1.204499         0.834361
 C        -2.107135         1.227510         0.450479
 C        -1.686771         1.804881         1.770959
 C        -1.102259         3.200418         1.439916
 O        -0.566068         3.813097         2.624968
 C         0.742433         3.098292         2.770069
 C         1.263939         3.038650         1.374954
 C         0.003889         2.649296         0.572431
 H         0.362620        -0.430663         0.183396
 H        -2.479010         1.922047        -0.371502
 H        -2.816690         0.279100         0.552574
 H        -2.017334         1.462670         2.738924
 H        -1.843906         3.936552         1.048392
 H         1.308175         3.771344         3.361239
 H         0.465979         2.130389         3.294682
 H         1.649754         3.962572         0.993043
 H         2.022033         2.160795         1.286964
 H         0.020279         3.118683        -0.408867
