19
Iteration:  4217charge 0 multiplicity 1
 O         0.134671         0.094035         0.872630
 C        -0.640325         1.261810         0.882473
 C        -2.008016         1.179387         0.371966
 C        -1.694430         1.833173         1.755682
 C        -1.237060         3.203661         1.551668
 O        -0.508359         3.802781         2.624160
 C         0.802844         3.108985         2.766485
 C         1.283269         2.978241         1.373038
 C        -0.076303         2.613684         0.633671
 H         1.002907         0.322493         1.329254
 H        -2.371776         1.875798        -0.574755
 H        -2.481843         0.238001         0.369605
 H        -2.404987         1.366217         2.604689
 H        -1.926853         3.994488         1.207166
 H         1.246408         3.776710         3.453419
 H         0.489740         2.229133         3.414352
 H         1.630712         3.887278         1.174935
 H         2.063793         2.215588         1.241868
 H        -0.174707         3.059575        -0.386466
