19
Iteration:  1475
 O         0.270080         0.258308         0.870366
 C        -0.693579         1.245258         0.839429
 C        -2.119863         1.096577         0.464442
 C        -1.666876         1.843727         1.808323
 C        -1.111228         3.269848         1.461644
 O        -0.554387         3.824489         2.620701
 C         0.747603         3.191627         2.803836
 C         1.244951         2.810618         1.414228
 C        -0.067891         2.577959         0.543255
 H        -0.171425        -0.613134         1.173167
 H        -2.418241         1.658905        -0.405146
 H        -2.626538         0.202744         0.493853
 H        -1.922608         1.551326         2.888697
 H        -1.636133         4.135594         0.926228
 H         1.305074         3.933720         3.268467
 H         0.649957         2.425644         3.574983
 H         1.732665         3.712711         1.055803
 H         1.865640         1.816630         1.472232
 H         0.030421         2.896887        -0.525460
