19
Iteration:  1937charge 0 multiplicity 1
 O         0.062121         0.058204         1.066759
 C        -0.637234         1.196500         0.855923
 C        -2.051204         1.261503         0.281718
 C        -1.631000         1.720294         1.832574
 C        -1.179649         3.178719         1.571697
 O        -0.485575         3.857706         2.665989
 C         0.756121         3.232823         2.745669
 C         1.268039         2.996964         1.351804
 C        -0.006856         2.583492         0.538119
 H         0.341152        -0.235778         0.154898
 H        -2.320268         2.110609        -0.479977
 H        -2.658123         0.403517         0.341074
 H        -2.204407         1.130759         2.657511
 H        -1.933928         3.926726         1.141779
 H         1.338020         4.053577         3.290449
 H         0.692944         2.266849         3.383251
 H         1.540364         3.966546         0.910353
 H         2.063716         2.227809         1.097878
 H        -0.047583         2.914605        -0.532059
