19
Iteration:  1456charge 0 multiplicity 1
 O         0.267186         0.148763         0.892946
 C        -0.605206         1.231159         0.772419
 C        -2.116801         1.117518         0.467477
 C        -1.724936         1.772521         1.760143
 C        -1.199404         3.232662         1.525890
 O        -0.413480         3.994139         2.554344
 C         0.729313         3.180575         2.851377
 C         1.205935         2.843667         1.411452
 C        -0.075625         2.655285         0.598276
 H        -0.279566        -0.688828         1.044095
 H        -2.808850         1.586899        -0.284029
 H        -2.406319         0.112338         0.552815
 H        -2.099105         1.286263         2.634523
 H        -2.002535         3.888105         1.207654
 H         1.458723         3.748259         3.424106
 H         0.371781         2.200241         3.466520
 H         1.809085         3.660994         0.970182
 H         1.828927         1.957557         1.409960
 H         0.173983         3.041652        -0.426278
