19
Iteration:  3691charge 0 multiplicity 1
 O         0.119308         0.109122         0.859866
 C        -0.614916         1.242483         0.884021
 C        -2.045165         1.179510         0.358807
 C        -1.668085         1.814791         1.844938
 C        -1.215267         3.252014         1.411310
 O        -0.491430         3.838777         2.705788
 C         0.711073         3.095210         2.773787
 C         1.204305         2.931032         1.347120
 C         0.000173         2.617608         0.610208
 H         0.947523         0.410563         1.320685
 H        -2.466553         1.780282        -0.449294
 H        -2.383714         0.171374         0.440351
 H        -2.105932         1.562360         2.805029
 H        -1.911051         3.998517         0.985725
 H         1.392914         3.621985         3.504861
 H         0.556597         2.085426         3.253982
 H         1.651284         3.898648         1.016124
 H         2.059195         2.173076         1.611141
 H        -0.002249         3.003839        -0.498932
