19
Iteration:   917
 O         0.133251         0.031090         0.944024
 C        -0.625516         1.234127         0.823121
 C        -2.096416         1.175766         0.434387
 C        -1.665072         1.737038         1.781671
 C        -1.167640         3.210091         1.503782
 O        -0.491418         3.963172         2.585224
 C         0.775258         3.287689         2.810557
 C         1.262694         2.866345         1.387374
 C        -0.031508         2.671424         0.615822
 H        -0.140336        -0.592641         0.190598
 H        -2.664502         1.854785        -0.310806
 H        -2.576335         0.136699         0.554800
 H        -2.028068         1.179968         2.679302
 H        -1.974982         3.960215         1.302429
 H         1.321144         4.085569         3.372829
 H         0.692727         2.305102         3.509061
 H         1.930035         3.618991         0.832279
 H         1.813721         1.799668         1.346883
 H         0.193582         3.027960        -0.417489
