19
Iteration:  2924
 O         0.110802         0.053479         0.828321
 C        -0.621199         1.257869         0.766007
 C        -2.042883         1.175775         0.421390
 C        -1.666786         1.812327         1.813630
 C        -1.147778         3.194028         1.526556
 O        -0.454971         3.891502         2.582529
 C         0.695936         3.201475         2.864921
 C         1.230872         2.887434         1.422403
 C        -0.076932         2.667823         0.587113
 H         0.677257         0.147007         1.588194
 H        -2.527893         1.525000        -0.389845
 H        -2.257845         0.059443         0.603109
 H        -2.107104         1.212934         2.670351
 H        -1.874893         3.975166         1.044076
 H         1.379139         3.800245         3.463831
 H         0.420970         2.302493         3.424399
 H         1.699415         3.741636         0.976755
 H         1.961507         2.019751         1.340752
 H        -0.065675         3.205094        -0.322234
