19
Iteration:  4446
 O         0.158155         0.046225         0.945832
 C        -0.671994         1.256425         0.782586
 C        -2.072331         1.180244         0.393692
 C        -1.700637         1.838710         1.675896
 C        -1.131646         3.296533         1.564636
 O        -0.576425         3.760285         2.707891
 C         0.795241         3.102752         2.748285
 C         1.227271         3.019321         1.390865
 C        -0.019409         2.634686         0.557260
 H         0.915914         0.305903         1.425690
 H        -2.560303         1.559376        -0.373761
 H        -2.265012         0.118096         0.571798
 H        -2.074563         1.421208         2.532011
 H        -1.746499         4.035596         1.063289
 H         1.209205         3.746528         3.398819
 H         0.523428         2.123405         3.283097
 H         1.590437         4.066487         1.250161
 H         2.142858         2.255568         1.338228
 H         0.087099         2.982392        -0.503787
