19
Iteration:  2278
 O         0.166355         0.065437         0.942417
 C        -0.597115         1.231638         0.830517
 C        -2.113394         1.193589         0.393497
 C        -1.643970         1.843060         1.752936
 C        -1.158996         3.244506         1.538580
 O        -0.620809         3.716280         2.739519
 C         0.803405         3.406964         2.813035
 C         1.268230         2.907222         1.371959
 C        -0.029050         2.601020         0.489430
 H        -0.313454        -0.659412         0.464221
 H        -2.499989         1.678758        -0.598797
 H        -2.581682         0.250266         0.495653
 H        -2.061703         1.361079         2.697572
 H        -1.793736         3.909075         0.967307
 H         1.317292         4.180393         3.258331
 H         1.066600         2.660922         3.672231
 H         2.094284         3.612423         0.937215
 H         1.762493         1.959744         1.303994
 H         0.184043         2.871244        -0.574396
