19
Iteration:  1404
 O         0.142119         0.042243         0.919417
 C        -0.623303         1.177183         0.860141
 C        -2.110565         1.218194         0.471578
 C        -1.693033         1.858220         1.821047
 C        -1.111851         3.197992         1.481126
 O        -0.591231         3.777691         2.596934
 C         0.762118         3.274193         2.787179
 C         1.307192         2.957734         1.383961
 C         0.031203         2.599267         0.587347
 H         0.027802        -0.513830         0.069900
 H        -2.536508         1.791533        -0.412551
 H        -2.800840         0.349870         0.630046
 H        -2.051855         1.466755         2.717287
 H        -1.868210         3.833501         1.072925
 H         1.389532         4.144193         3.242073
 H         0.800582         2.519438         3.466797
 H         1.504794         3.977550         0.980690
 H         2.150601         2.347640         1.457955
 H         0.084378         3.031623        -0.385502
