19
Iteration:  1880
 O         0.213768         0.207111         1.039408
 C        -0.707187         1.277610         0.816742
 C        -2.122496         1.183823         0.417928
 C        -1.800501         1.859226         1.674856
 C        -1.100571         3.182314         1.433983
 O        -0.533171         3.664483         2.740092
 C         0.884180         3.305499         2.774726
 C         1.221665         2.893297         1.399891
 C        -0.042719         2.562327         0.583435
 H         0.133275        -0.458801         0.311878
 H        -2.370301         1.649175        -0.621673
 H        -2.528941         0.113596         0.399429
 H        -2.046640         1.594740         2.651355
 H        -1.667021         4.023839         0.995471
 H         1.267238         4.145773         3.252463
 H         0.962054         2.490830         3.512286
 H         1.594237         3.738201         0.817996
 H         2.012134         2.028992         1.200453
 H         0.018784         3.024576        -0.391672
