19
Iteration:  3306
 O         0.186774         0.069981         0.919205
 C        -0.608421         1.313983         0.887528
 C        -2.071293         1.235487         0.351111
 C        -1.671352         1.796371         1.786034
 C        -1.245918         3.243977         1.591220
 O        -0.471808         3.789872         2.548247
 C         0.705116         3.060944         2.837054
 C         1.225472         2.965018         1.336582
 C        -0.035331         2.667784         0.575828
 H         0.594781         0.071582         1.769635
 H        -2.433363         1.800150        -0.516811
 H        -2.509174         0.221623         0.423174
 H        -2.131126         1.232059         2.715782
 H        -2.047447         4.059732         1.149740
 H         1.314567         3.719507         3.406676
 H         0.500188         2.062401         3.250264
 H         1.674146         3.855460         0.997534
 H         2.075028         2.280598         1.166431
 H         0.197977         3.002200        -0.424603
