19
Iteration:  2868charge 0 multiplicity 1
 O         0.031130        -0.054755         0.770409
 C        -0.611868         1.191004         0.792608
 C        -2.078531         1.179094         0.432730
 C        -1.796269         1.780296         1.772401
 C        -1.225005         3.127003         1.505356
 O        -0.500575         3.879059         2.636405
 C         0.830413         3.327275         2.830027
 C         1.279730         3.027843         1.483157
 C         0.057635         2.621648         0.619824
 H         0.803383        -0.031365         1.378771
 H        -2.344135         1.854284        -0.408301
 H        -2.483882         0.246347         0.357445
 H        -2.047183         1.341384         2.736953
 H        -2.020571         3.901861         1.151135
 H         1.544638         4.064763         3.319218
 H         0.757618         2.557628         3.611434
 H         1.623669         3.982449         1.004589
 H         2.158654         2.347067         1.289645
 H         0.289876         2.955528        -0.383562
