19
Iteration:    13charge 0 multiplicity 1
 O         0.085708         0.003822         1.046173
 C        -0.645648         1.169063         0.832050
 C        -2.076299         1.193628         0.366566
 C        -1.719186         1.764411         1.798813
 C        -1.130505         3.172777         1.467446
 O        -0.566768         3.894268         2.620715
 C         0.812338         3.266490         2.744101
 C         1.255033         2.996458         1.383143
 C         0.002518         2.635246         0.690298
 H         0.628880        -0.145822         0.127025
 H        -2.111116         2.094359        -0.358037
 H        -2.768760         0.491905         0.222434
 H        -2.092395         1.404479         2.645309
 H        -1.641642         3.836070         0.763181
 H         1.414939         3.909514         3.282760
 H         0.749138         2.290998         3.296893
 H         1.813816         3.832183         0.831659
 H         1.844247         2.030501         1.387402
 H         0.127097         2.972902        -0.438216
