19
Iteration:  4451
 O         0.133490         0.062622         0.948738
 C        -0.668306         1.289772         0.796574
 C        -2.088301         1.151251         0.398541
 C        -1.713778         1.835177         1.655785
 C        -1.168417         3.256233         1.503074
 O        -0.564301         3.744711         2.711464
 C         0.780391         3.114499         2.779181
 C         1.284960         2.997437         1.364551
 C         0.002960         2.670757         0.575541
 H         1.021664         0.256786         1.404807
 H        -2.690174         1.605251        -0.573642
 H        -2.363548         0.081861         0.703399
 H        -2.020065         1.345831         2.667103
 H        -1.892183         4.029120         1.145166
 H         1.405557         3.770657         3.582246
 H         0.610556         2.181543         3.326699
 H         1.581732         4.026915         1.173270
 H         2.164105         2.445786         1.361645
 H         0.168095         3.019125        -0.431652
