19
Iteration:  3107charge 0 multiplicity 1
 O         0.121474         0.043449         0.880512
 C        -0.650699         1.243914         0.861930
 C        -2.071396         1.142819         0.370820
 C        -1.705317         1.775211         1.736513
 C        -1.178146         3.282138         1.544546
 O        -0.573438         3.844756         2.654730
 C         0.775209         3.209322         2.844863
 C         1.266788         2.878399         1.353871
 C         0.003047         2.691530         0.548690
 H         1.006978         0.339525         1.190138
 H        -2.434569         1.848327        -0.351219
 H        -2.639378         0.143230         0.578750
 H        -1.914521         1.461823         2.791502
 H        -1.967439         4.024977         1.225618
 H         1.500600         3.864175         3.321836
 H         0.701989         2.220260         3.379809
 H         1.859205         3.679918         0.978707
 H         1.923513         1.989661         1.463315
 H         0.166223         3.001081        -0.475943
