19
Iteration:   271charge 0 multiplicity 1
 O         0.011161         0.067996         1.058940
 C        -0.579016         1.208341         0.818696
 C        -2.110717         1.127379         0.397350
 C        -1.637673         1.775419         1.709071
 C        -1.122449         3.234149         1.454068
 O        -0.527154         3.868918         2.640272
 C         0.783417         3.270222         2.826981
 C         1.269584         2.878568         1.375127
 C        -0.017907         2.653796         0.582747
 H         0.580528        -0.346203         0.311891
 H        -2.536581         1.789730        -0.294451
 H        -2.454778         0.077828         0.519175
 H        -1.968114         1.571161         2.767331
 H        -1.740913         4.052606         1.023946
 H         1.497706         4.110324         3.117104
 H         0.785721         2.579564         3.632313
 H         1.464309         3.837377         0.971287
 H         1.899497         2.104712         1.085911
 H        -0.045225         2.921901        -0.476588
