19
Iteration:  2881
 O         0.029852        -0.000656         0.762491
 C        -0.620353         1.208957         0.804374
 C        -2.043955         1.264629         0.439174
 C        -1.667511         1.736719         1.813609
 C        -1.067703         3.173265         1.538526
 O        -0.563377         3.837376         2.594860
 C         0.728209         3.316197         2.855103
 C         1.266261         3.036572         1.386915
 C         0.021368         2.531484         0.649245
 H         0.700566        -0.063520         1.486658
 H        -2.520567         1.915143        -0.180080
 H        -2.512053         0.240708         0.430250
 H        -2.257305         1.489963         2.734334
 H        -1.749539         3.894115         0.936927
 H         1.214320         4.059255         3.465675
 H         0.774186         2.323854         3.340601
 H         1.646115         3.914946         0.944570
 H         2.101381         2.301093         1.469219
 H        -0.006984         2.784538        -0.391545
