19
Iteration:   250
 O         0.035976         0.014105         1.092515
 C        -0.656083         1.218433         0.842789
 C        -2.064034         1.175263         0.399640
 C        -1.772085         1.853751         1.744467
 C        -1.183190         3.251002         1.497652
 O        -0.569645         3.691363         2.648252
 C         0.852123         3.352483         2.746947
 C         1.341223         3.017435         1.354527
 C         0.081136         2.623045         0.533750
 H         0.291658        -0.349308         0.232004
 H        -2.448809         1.660184        -0.457912
 H        -2.427007         0.163046         0.652590
 H        -2.206545         1.533345         2.736566
 H        -1.760737         4.005111         0.952934
 H         1.479380         4.055567         3.372560
 H         0.873234         2.405666         3.246481
 H         1.784561         3.773119         0.801834
 H         1.901836         2.160084         1.550630
 H         0.110126         2.872367        -0.561896
