19
Iteration:  4204
 O         0.082124         0.076873         0.898771
 C        -0.629121         1.241711         0.864651
 C        -1.999400         1.194808         0.323987
 C        -1.704177         1.780703         1.807058
 C        -1.194189         3.239161         1.542191
 O        -0.520261         3.755822         2.643216
 C         0.744859         3.140657         2.812358
 C         1.240608         3.025776         1.367138
 C        -0.047277         2.708557         0.598429
 H         0.870955         0.182897         1.406200
 H        -2.246584         1.823229        -0.614019
 H        -2.442271         0.258510         0.506022
 H        -2.055848         1.312072         2.761870
 H        -2.006620         3.946614         1.164986
 H         1.471840         3.762181         3.411764
 H         0.816792         2.116375         3.198720
 H         1.789948         3.834490         0.881399
 H         1.939836         2.155976         1.180118
 H         0.180904         2.774349        -0.552010
