19
Iteration:  3864
 O         0.204097         0.112132         0.902879
 C        -0.655784         1.245016         0.811991
 C        -2.157885         1.071377         0.433105
 C        -1.774853         1.861814         1.691807
 C        -1.127589         3.289522         1.509973
 O        -0.489694         3.743325         2.668020
 C         0.760303         3.069666         2.843581
 C         1.266077         2.954016         1.357728
 C        -0.039385         2.698137         0.595232
 H         0.984919         0.467692         1.394800
 H        -2.617960         1.610155        -0.559371
 H        -2.573876         0.108252         0.407687
 H        -2.064296         1.816840         2.722170
 H        -1.699608         4.200333         1.163690
 H         1.389308         3.859277         3.387577
 H         0.573101         2.170194         3.447304
 H         1.630279         3.897127         0.950345
 H         2.112168         2.248190         1.203625
 H        -0.163180         3.117324        -0.369020
