19
Iteration:  1147
 O         0.139538         0.054399         0.844564
 C        -0.655583         1.180378         0.869182
 C        -2.001580         1.184262         0.311184
 C        -1.701066         1.796329         1.831028
 C        -1.121297         3.177044         1.599093
 O        -0.511095         3.884885         2.668757
 C         0.787477         3.406863         2.748046
 C         1.208581         2.897777         1.365755
 C        -0.024154         2.531440         0.657675
 H        -0.438788        -0.728608         0.496004
 H        -2.405032         1.756466        -0.631074
 H        -2.676065         0.238272         0.417793
 H        -2.270395         1.412211         2.597655
 H        -1.796634         3.995762         1.187336
 H         1.326989         4.193351         3.280123
 H         0.829887         2.625909         3.538575
 H         1.638509         3.707803         0.820328
 H         2.016588         2.112319         1.664968
 H         0.070929         3.035457        -0.359874
