19
Iteration:   893charge 0 multiplicity 1
 O         0.205436         0.128178         0.913742
 C        -0.622334         1.208259         0.731822
 C        -2.067958         1.131678         0.541986
 C        -1.648988         1.852679         1.796299
 C        -1.084562         3.319059         1.498034
 O        -0.499742         3.951927         2.572196
 C         0.664001         3.153792         2.812274
 C         1.220206         2.781545         1.428370
 C        -0.073744         2.626944         0.542259
 H        -0.189366        -0.617348         0.512026
 H        -2.686197         1.542208        -0.287922
 H        -2.587854         0.130753         0.947424
 H        -1.765446         1.424503         2.710316
 H        -1.787087         4.155384         1.160053
 H         1.314458         3.728086         3.477637
 H         0.376128         2.136769         3.353674
 H         1.659800         3.794956         1.020338
 H         2.002916         1.990884         1.368838
 H        -0.007381         3.020711        -0.447442
