19
Iteration:   641charge 0 multiplicity 1
 O         0.221779         0.074976         0.974535
 C        -0.614704         1.221014         0.757235
 C        -2.158944         1.164806         0.507782
 C        -1.675498         1.842125         1.731322
 C        -1.089398         3.254186         1.511306
 O        -0.549528         3.877112         2.643492
 C         0.695307         3.222843         2.811689
 C         1.244383         2.888226         1.366161
 C         0.013643         2.628086         0.520152
 H        -0.424708        -0.679603         0.782141
 H        -2.762334         1.668515        -0.391132
 H        -2.525584         0.196712         0.723406
 H        -1.790190         1.597759         2.828188
 H        -1.648514         4.043496         0.990364
 H         1.359239         3.806383         3.439764
 H         0.495379         2.238578         3.323988
 H         1.937691         3.613573         0.786583
 H         1.837595         1.999614         1.553859
 H         0.046604         3.098323        -0.586346
