19
Iteration:  1821charge 0 multiplicity 1
 O         0.162506         0.071335         1.057874
 C        -0.592196         1.256346         0.829664
 C        -2.050211         1.202241         0.372330
 C        -1.658818         1.779564         1.728208
 C        -1.222397         3.246330         1.580741
 O        -0.426288         3.866712         2.567895
 C         0.695689         3.101536         2.883871
 C         1.243475         3.000430         1.317014
 C        -0.070312         2.625651         0.525506
 H        -0.140979        -0.628289         0.378993
 H        -2.316972         1.914947        -0.398149
 H        -2.448482         0.135895         0.498397
 H        -2.171610         1.351432         2.660470
 H        -2.003293         3.891944         1.225793
 H         1.300296         3.668918         3.633330
 H         0.609547         2.093191         3.219640
 H         1.403345         4.160007         1.270035
 H         2.116089         2.435016         1.011255
 H        -0.009264         2.892643        -0.549429
