19
Iteration:   662charge 0 multiplicity 1
 O         0.160195         0.143987         0.945401
 C        -0.655796         1.282949         0.815513
 C        -2.046235         1.031099         0.531430
 C        -1.696683         1.949911         1.793684
 C        -1.163854         3.272589         1.379726
 O        -0.481261         3.890478         2.566662
 C         0.733042         3.076735         2.876602
 C         1.265892         2.826021         1.426202
 C        -0.053667         2.663758         0.535582
 H        -0.215418        -0.539278         0.369091
 H        -2.667426         1.463697        -0.424492
 H        -2.315427         0.074319         0.883998
 H        -2.102638         1.553232         2.821187
 H        -1.882616         4.077486         1.095051
 H         1.285731         3.874361         3.266323
 H         0.682330         2.103402         3.433890
 H         1.623194         3.859615         0.957403
 H         2.111651         2.154696         1.445506
 H         0.282096         3.062997        -0.539397
