19
Iteration:  3790charge 0 multiplicity 1
 O         0.097224        -0.008417         0.804096
 C        -0.632195         1.176448         0.795577
 C        -2.059416         1.227817         0.361119
 C        -1.678752         1.773610         1.794656
 C        -1.125449         3.179118         1.546079
 O        -0.488950         3.873073         2.721690
 C         0.712575         3.243309         2.817575
 C         1.287478         3.037126         1.370031
 C        -0.013674         2.607070         0.598980
 H         0.159734        -0.240025         1.790397
 H        -2.492302         1.811959        -0.461637
 H        -2.492912         0.294103         0.385775
 H        -2.136219         1.278285         2.588688
 H        -1.896469         3.836549         1.153694
 H         1.337096         3.994580         3.357696
 H         0.585050         2.445930         3.593579
 H         1.535647         4.076279         1.025499
 H         2.149887         2.323396         1.114739
 H        -0.111775         2.873543        -0.567312
