19
Iteration:   578
 O         0.171474        -0.018533         0.930158
 C        -0.597989         1.210158         0.801864
 C        -2.157496         1.121153         0.401283
 C        -1.747427         1.843486         1.692732
 C        -1.186810         3.256410         1.560952
 O        -0.585107         3.880834         2.670159
 C         0.875599         3.298325         2.774165
 C         1.334954         2.940035         1.344133
 C         0.005370         2.602239         0.671461
 H        -0.502810        -0.727216         0.815252
 H        -2.491222         1.698387        -0.499791
 H        -2.748479         0.316357         0.557618
 H        -2.293705         1.554498         2.614282
 H        -1.846874         3.961502         1.035095
 H         1.400020         4.175314         3.266515
 H         1.107461         2.490541         3.451470
 H         1.815169         3.802411         0.809522
 H         2.101718         2.204961         1.549540
 H         0.019591         2.929812        -0.355490
