19
Iteration:  1694charge 0 multiplicity 1
 O         0.094379         0.009196         0.845983
 C        -0.615448         1.215647         0.872818
 C        -2.041007         1.077929         0.477948
 C        -1.744024         1.822128         1.758210
 C        -1.139998         3.275706         1.500540
 O        -0.569064         3.868690         2.663484
 C         0.733645         3.279760         2.819926
 C         1.326943         3.017743         1.417772
 C         0.075980         2.586699         0.549169
 H        -0.376828        -0.726625         0.417362
 H        -2.448215         1.600574        -0.365820
 H        -2.698766         0.117792         0.591571
 H        -2.193615         1.617829         2.766296
 H        -1.884816         3.956537         0.975639
 H         1.440172         3.957593         3.224665
 H         0.635445         2.231793         3.393784
 H         1.713911         3.902070         0.999471
 H         2.298084         2.389101         1.333619
 H         0.211773         3.067177        -0.435418
