19
Iteration:  4720
 O         0.061586         0.012221         0.970226
 C        -0.622430         1.181180         0.831148
 C        -1.999961         1.296018         0.291547
 C        -1.699299         1.749889         1.711040
 C        -1.247102         3.167949         1.489535
 O        -0.526323         3.796802         2.689871
 C         0.788215         3.160965         2.792999
 C         1.307680         3.055893         1.385149
 C        -0.045438         2.664827         0.665412
 H         0.990535         0.185675         1.177021
 H        -2.279494         1.951549        -0.598189
 H        -2.438427         0.344970         0.250787
 H        -2.117201         1.456102         2.752570
 H        -1.902140         3.961969         1.109724
 H         1.241432         3.861180         3.357980
 H         0.831185         2.175747         3.268847
 H         1.759913         3.877586         1.002602
 H         1.975848         2.304535         1.267328
 H        -0.158914         3.074396        -0.343113
