19
Iteration:   284charge 0 multiplicity 1
 O         0.126954         0.021580         1.078358
 C        -0.678567         1.220254         0.735479
 C        -2.094987         1.188908         0.411034
 C        -1.641936         1.787253         1.772685
 C        -1.159763         3.227188         1.522076
 O        -0.499193         3.932789         2.584649
 C         0.804410         3.260474         2.828539
 C         1.211688         2.901913         1.385478
 C        -0.036520         2.597199         0.526186
 H         0.497898        -0.222587         0.252888
 H        -2.508762         1.771758        -0.363763
 H        -2.633107         0.202142         0.496053
 H        -2.084884         1.229916         2.742067
 H        -1.951436         3.873938         1.089046
 H         1.481228         4.001823         3.411604
 H         0.609048         2.348985         3.360203
 H         1.850739         3.624209         1.010817
 H         1.931918         2.131501         1.531721
 H         0.163423         3.039421        -0.505839
