19
Iteration:  1662
 O         0.214021         0.076815         0.956964
 C        -0.592052         1.170286         0.779827
 C        -2.058393         1.197070         0.513240
 C        -1.778957         1.850246         1.776995
 C        -1.182605         3.249710         1.499909
 O        -0.516906         3.870965         2.566705
 C         0.724926         3.155888         2.825306
 C         1.252034         2.957930         1.402449
 C         0.030163         2.608891         0.522892
 H        -0.235269        -0.635604         0.396415
 H        -2.515417         1.739418        -0.303776
 H        -2.685819         0.233333         0.621678
 H        -1.999274         1.418296         2.772661
 H        -2.026617         3.994280         1.235450
 H         1.334124         3.818672         3.403407
 H         0.639101         2.132130         3.424489
 H         1.580756         3.981422         1.125404
 H         2.158522         2.219559         1.373349
 H         0.114835         3.122777        -0.470506
