19
Iteration:  2317charge 0 multiplicity 1
 O         0.161824         0.057690         0.923742
 C        -0.711558         1.209430         0.809377
 C        -2.117402         1.200519         0.349930
 C        -1.713859         1.689526         1.749025
 C        -1.158653         3.159907         1.570569
 O        -0.539458         3.865039         2.605274
 C         0.881726         3.426984         2.855386
 C         1.269843         2.864324         1.435748
 C        -0.026905         2.662956         0.618427
 H         0.398162        -0.264610         0.004982
 H        -2.536163         1.821325        -0.490009
 H        -2.477986         0.165308         0.376095
 H        -2.120229         1.259296         2.700362
 H        -2.052653         3.824484         1.288670
 H         1.398858         4.455777         3.177430
 H         0.905416         2.723247         3.623046
 H         2.003458         3.386830         0.850684
 H         1.747820         1.854980         1.614842
 H        -0.049790         2.913763        -0.460833
