19
Iteration:  4957
 O         0.209221         0.122889         0.839965
 C        -0.637549         1.268354         0.816989
 C        -2.080879         1.167414         0.411937
 C        -1.748280         1.918289         1.703433
 C        -1.165462         3.261676         1.525611
 O        -0.541205         3.790287         2.668207
 C         0.670102         3.121055         2.838362
 C         1.278625         2.893098         1.432374
 C        -0.012844         2.560231         0.562088
 H         0.883942         0.276523         1.598036
 H        -2.415246         1.639163        -0.470203
 H        -2.646731         0.199371         0.443795
 H        -1.911194         1.480135         2.767102
 H        -1.831211         4.002700         1.148464
 H         1.392271         3.675452         3.416025
 H         0.653265         2.091127         3.234995
 H         1.571969         3.906610         1.051701
 H         2.220750         2.314243         1.510841
 H        -0.001802         2.987078        -0.520806
