19
Iteration:   302charge 0 multiplicity 1
 O         0.203971         0.087433         0.990824
 C        -0.610684         1.187498         0.881757
 C        -2.105344         1.265651         0.452973
 C        -1.681582         1.734147         1.785409
 C        -1.197635         3.230312         1.560089
 O        -0.501134         3.960170         2.497372
 C         0.653181         3.231273         2.743090
 C         1.329689         2.823144         1.393398
 C        -0.022755         2.621060         0.640423
 H         0.357281        -0.370458         0.197495
 H        -2.434535         1.948139        -0.343304
 H        -2.728073         0.340689         0.454905
 H        -2.035738         1.476910         2.737607
 H        -1.923890         3.849100         0.987577
 H         1.353182         3.683280         3.376406
 H         0.370241         2.282039         3.287924
 H         1.910198         3.674363         0.864320
 H         1.873105         1.839281         1.326357
 H        -0.107237         2.871501        -0.374441
