19
Iteration:  1652charge 0 multiplicity 1
 O         0.234248         0.109986         1.002058
 C        -0.594318         1.263803         0.813505
 C        -2.079203         1.216424         0.464906
 C        -1.678813         1.832332         1.832339
 C        -1.214347         3.200037         1.500280
 O        -0.528605         3.851620         2.598811
 C         0.677840         3.139317         2.732729
 C         1.267983         2.856221         1.363480
 C        -0.008887         2.683429         0.562354
 H        -0.058466        -0.657941         0.386750
 H        -2.232964         1.983992        -0.214993
 H        -2.542962         0.159986         0.433676
 H        -2.248904         1.522645         2.750382
 H        -2.000231         4.002388         1.109358
 H         1.283172         3.805974         3.327753
 H         0.441499         2.235546         3.396893
 H         1.754647         3.866001         0.997693
 H         2.120285         2.022960         1.331450
 H         0.009730         2.844889        -0.557795
