19
Iteration:  2414
 O         0.233012         0.078850         0.868688
 C        -0.633893         1.258561         0.861092
 C        -2.065065         1.205365         0.508682
 C        -1.716017         1.844477         1.792124
 C        -1.170442         3.249723         1.501661
 O        -0.557866         3.844503         2.603419
 C         0.725174         3.125716         2.738996
 C         1.192189         2.909838         1.347297
 C        -0.006551         2.632830         0.553462
 H         0.365968        -0.243587         1.815306
 H        -2.432021         1.784963        -0.279805
 H        -2.464698         0.247945         0.625004
 H        -1.998394         1.266543         2.746492
 H        -1.789129         4.114777         1.083429
 H         1.404120         3.708563         3.390583
 H         0.618847         2.138850         3.438052
 H         1.788121         3.735399         1.056939
 H         1.952437         2.110018         1.147584
 H         0.099221         3.113744        -0.420381
