19
Iteration:   870charge 0 multiplicity 1
 O         0.266392         0.229241         0.890382
 C        -0.592908         1.252778         0.916605
 C        -2.142753         1.171914         0.604943
 C        -1.712281         1.888753         1.866456
 C        -1.163923         3.251743         1.369547
 O        -0.520776         3.845004         2.516240
 C         0.685550         3.032840         2.794835
 C         1.259179         2.844589         1.448370
 C        -0.001586         2.633840         0.482456
 H        -0.191807        -0.551815         0.484512
 H        -2.616090         1.633859        -0.275356
 H        -2.579185         0.058026         0.702170
 H        -2.086667         1.962706         2.835295
 H        -1.855326         4.102581         1.005130
 H         1.357676         3.575901         3.453432
 H         0.447532         1.970062         3.264647
 H         1.890164         3.819350         1.222503
 H         1.932977         2.007663         1.355522
 H         0.056462         2.791762        -0.548842
