19
Iteration:  2598charge 0 multiplicity 1
 O         0.255726         0.136605         0.832123
 C        -0.622748         1.220554         0.843312
 C        -2.150254         1.121781         0.551944
 C        -1.701986         1.849199         1.760260
 C        -1.105255         3.193813         1.508062
 O        -0.505020         3.887201         2.594952
 C         0.704071         3.245082         2.872978
 C         1.250061         2.863466         1.397640
 C        -0.053512         2.627766         0.557160
 H        -0.065204        -0.450409         0.070138
 H        -2.593405         1.551914        -0.476726
 H        -2.579576         0.145770         0.778213
 H        -2.118004         1.754760         2.826486
 H        -1.725288         3.938879         1.090294
 H         1.313021         3.873656         3.417417
 H         0.571239         2.319184         3.453613
 H         1.786192         3.649558         0.903915
 H         1.894106         1.916215         1.504884
 H        -0.078218         2.932567        -0.490920
