19
Iteration:   743charge 0 multiplicity 1
 O         0.006739         0.024876         1.111034
 C        -0.679656         1.197294         0.847512
 C        -2.100757         1.118688         0.336577
 C        -1.792181         1.855190         1.683490
 C        -1.106845         3.194205         1.576574
 O        -0.535797         3.794445         2.686242
 C         0.842676         3.309910         2.781691
 C         1.398939         3.016396         1.245907
 C         0.002484         2.667694         0.587765
 H         0.307268        -0.412668         0.334865
 H        -2.458946         1.638915        -0.479634
 H        -2.458770         0.007600         0.304916
 H        -1.979894         1.346066         2.617844
 H        -1.840831         3.937812         1.356366
 H         1.403482         4.170408         3.334843
 H         0.966148         2.459361         3.435098
 H         1.870297         3.878177         0.804683
 H         2.117526         2.121709         1.200637
 H         0.008494         2.897921        -0.562807
