19
Iteration:  4654charge 0 multiplicity 1
 O         0.136334         0.077409         0.848827
 C        -0.629278         1.289086         0.750299
 C        -2.084924         1.170916         0.403275
 C        -1.677779         1.789523         1.722355
 C        -1.186175         3.209855         1.474438
 O        -0.595802         3.794928         2.707617
 C         0.737238         3.205169         2.816502
 C         1.382129         2.926409         1.401234
 C        -0.015926         2.654487         0.632017
 H         0.240104         0.080672         1.863974
 H        -2.487221         1.780677        -0.399653
 H        -2.462577         0.107691         0.366554
 H        -1.903457         1.599492         2.837287
 H        -2.027939         3.813104         1.135321
 H         1.364663         3.909240         3.227639
 H         0.656038         2.285456         3.456593
 H         1.837360         3.817577         1.125009
 H         2.034436         2.157025         1.308666
 H         0.047919         3.010446        -0.427189
