19
Iteration:  4310charge 0 multiplicity 1
 O         0.154820        -0.031347         0.789074
 C        -0.601873         1.134695         0.794083
 C        -2.033542         1.277798         0.383521
 C        -1.725783         1.776835         1.769109
 C        -1.117910         3.181550         1.604645
 O        -0.538752         3.913013         2.635789
 C         0.741575         3.195075         2.885052
 C         1.179127         2.998718         1.393432
 C        -0.032874         2.632129         0.592967
 H         0.818979         0.214743         1.454956
 H        -2.435424         1.795916        -0.487219
 H        -2.692740         0.291621         0.423457
 H        -2.247384         1.365776         2.575093
 H        -1.797951         3.761181         0.918641
 H         1.523732         3.928805         3.407154
 H         0.730389         2.217020         3.585800
 H         1.713469         4.039174         1.041474
 H         2.013955         2.275637         1.387474
 H        -0.137705         3.103080        -0.377592
