19
Iteration:  2324charge 0 multiplicity 1
 O         0.165536         0.069936         0.919356
 C        -0.650576         1.146219         0.812752
 C        -2.118210         1.233028         0.340807
 C        -1.725050         1.673074         1.784762
 C        -1.169866         3.179508         1.563178
 O        -0.515520         3.905006         2.646622
 C         0.818643         3.438445         2.799445
 C         1.252774         2.848378         1.444307
 C        -0.015004         2.583465         0.586786
 H         0.453352         0.060265        -0.063532
 H        -2.613968         1.863847        -0.318563
 H        -2.580197         0.208749         0.262443
 H        -2.236291         1.451796         2.665179
 H        -2.070206         3.709330         1.271518
 H         1.409441         4.185246         3.139118
 H         0.926904         2.713059         3.683920
 H         1.980545         3.433973         0.885356
 H         1.851937         1.942598         1.615738
 H         0.019705         3.071728        -0.370259
