19
Iteration:  3240charge 0 multiplicity 1
 O         0.056672         0.013736         0.874242
 C        -0.632753         1.221561         0.812727
 C        -2.021882         1.228831         0.290181
 C        -1.835155         1.735448         1.786748
 C        -1.178328         3.180858         1.566905
 O        -0.553862         3.735484         2.721639
 C         0.882327         3.407877         2.778290
 C         1.253249         2.980076         1.380615
 C         0.043480         2.592228         0.631674
 H         0.951738         0.081628         1.317575
 H        -2.274088         1.907447        -0.567398
 H        -2.436630         0.299159         0.224914
 H        -2.326048         1.501176         2.740386
 H        -1.726640         4.093814         1.068852
 H         1.290760         4.244605         3.228615
 H         0.908075         2.544567         3.359999
 H         1.760359         3.700769         0.823999
 H         1.948852         2.117614         1.503861
 H        -0.027307         2.816180        -0.392925
