19
Iteration:   343charge 0 multiplicity 1
 O         0.216822         0.030317         0.928356
 C        -0.627611         1.219669         0.779584
 C        -2.150126         1.061594         0.520378
 C        -1.670790         1.903141         1.759959
 C        -1.141828         3.281393         1.426677
 O        -0.549184         3.924605         2.616703
 C         0.719073         3.218646         2.815294
 C         1.314538         2.854429         1.380647
 C         0.017618         2.646748         0.604227
 H        -0.369557        -0.558854         0.374234
 H        -2.736631         1.627685        -0.289962
 H        -2.574304         0.146169         0.897228
 H        -2.133277         1.630973         2.607726
 H        -1.766894         4.080354         1.017192
 H         1.206720         3.865566         3.500823
 H         0.525326         2.279052         3.447583
 H         1.763995         3.817778         0.935898
 H         1.975093         1.936719         1.540443
 H         0.158796         3.137911        -0.388749
