19
Iteration:   728
 O         0.010300         0.069327         1.157878
 C        -0.629874         1.256757         0.780143
 C        -2.067676         1.187831         0.349972
 C        -1.674794         1.691171         1.754781
 C        -1.204744         3.221185         1.523828
 O        -0.477172         3.812535         2.623294
 C         0.868102         3.255131         2.722908
 C         1.296055         2.963442         1.353882
 C        -0.041363         2.665085         0.604386
 H         0.443179        -0.217663         0.343599
 H        -2.519040         1.896624        -0.465573
 H        -2.523819         0.223619         0.492358
 H        -2.116405         1.361892         2.685552
 H        -1.919324         3.862822         0.966746
 H         1.455608         3.970141         3.241455
 H         0.724423         2.288704         3.206226
 H         1.773748         3.860405         0.802769
 H         1.920460         2.089547         1.370487
 H        -0.065326         3.131794        -0.403225
