19
Iteration:   106
 O         0.207739         0.121616         0.967489
 C        -0.643297         1.247158         0.886716
 C        -2.051252         1.144021         0.374427
 C        -1.652652         1.791773         1.813293
 C        -1.096443         3.307897         1.489528
 O        -0.488709         3.911652         2.526464
 C         0.651822         3.223574         2.880905
 C         1.162606         2.801124         1.357174
 C        -0.046161         2.588894         0.620675
 H        -0.211577        -0.555719         0.487063
 H        -2.442478         1.805293        -0.385227
 H        -2.381695         0.079461         0.452137
 H        -1.891384         1.399576         2.818541
 H        -1.705925         4.060960         0.938080
 H         1.361159         3.937161         3.368956
 H         0.548302         2.292913         3.456845
 H         1.762930         3.666120         0.967133
 H         1.875043         1.954430         1.195363
 H        -0.057306         3.046900        -0.465274
