19
Iteration:  2433
 O         0.236631         0.213814         0.952603
 C        -0.637181         1.224586         0.878247
 C        -2.029099         1.208412         0.367431
 C        -1.720953         1.748530         1.780133
 C        -1.184941         3.241509         1.516073
 O        -0.492949         3.819093         2.653940
 C         0.766547         3.180665         2.761577
 C         1.269115         2.869912         1.262547
 C        -0.149943         2.606012         0.592084
 H         0.126279        -0.256235         1.791636
 H        -2.256110         1.945660        -0.422669
 H        -2.633097         0.177137         0.369710
 H        -2.370207         1.724131         2.632600
 H        -2.032477         3.906081         1.428312
 H         1.362208         3.785624         3.290292
 H         0.721494         2.179553         3.323594
 H         1.886141         3.677880         0.809917
 H         1.911244         1.962610         1.433593
 H        -0.117716         2.886062        -0.457236
