19
Iteration:  4743
 O         0.085266         0.065989         0.921919
 C        -0.636829         1.247387         0.798221
 C        -2.021591         1.206546         0.361181
 C        -1.761058         1.755417         1.687005
 C        -1.122739         3.238285         1.502857
 O        -0.505335         3.796288         2.733146
 C         0.733301         3.161249         2.839228
 C         1.224238         2.999712         1.418840
 C         0.024824         2.623611         0.506375
 H         0.858651         0.322880         1.542111
 H        -2.522147         1.735767        -0.533557
 H        -2.407306         0.222363         0.520821
 H        -2.122705         1.222773         2.636962
 H        -1.769765         4.093024         1.250125
 H         1.266398         3.864251         3.392005
 H         0.686721         2.204108         3.386334
 H         1.590378         3.916830         1.101654
 H         2.042019         2.363652         1.243377
 H         0.066195         2.933169        -0.581380
