19
Iteration:   263
 O        -0.005714         0.029964         1.074587
 C        -0.589292         1.282660         0.844962
 C        -2.081409         1.128932         0.435030
 C        -1.695100         1.852395         1.669312
 C        -1.095084         3.215475         1.431552
 O        -0.537271         3.792666         2.659515
 C         0.778958         3.277534         2.767758
 C         1.291416         2.927734         1.348540
 C        -0.019671         2.612300         0.628349
 H         0.437447        -0.216751         0.204653
 H        -2.518253         1.671762        -0.366242
 H        -2.403230         0.035075         0.495262
 H        -1.894059         1.386774         2.760292
 H        -1.783871         4.005471         1.161470
 H         1.240604         4.290864         3.050562
 H         0.856201         2.527410         3.559134
 H         1.736082         3.828971         0.978635
 H         2.095179         2.207249         1.174338
 H         0.089959         2.998883        -0.454822
