19
Iteration:  1999
 O         0.197172         0.130765         0.966899
 C        -0.648045         1.256199         0.780738
 C        -2.032612         1.137980         0.497731
 C        -1.708698         1.837695         1.764922
 C        -1.218397         3.283963         1.500120
 O        -0.522161         3.867409         2.623559
 C         0.702167         3.169647         2.810764
 C         1.280450         2.846208         1.356748
 C        -0.010499         2.679703         0.559020
 H        -0.101355        -0.614296         0.384970
 H        -2.701314         1.651463        -0.250516
 H        -2.303050         0.155061         0.656125
 H        -1.956053         1.388252         2.743295
 H        -1.836799         4.027525         1.062403
 H         1.305743         3.733372         3.446329
 H         0.736037         2.164924         3.295466
 H         1.917105         3.592835         0.932823
 H         1.838791         1.855652         1.295577
 H         0.183122         3.014863        -0.445408
