19
Iteration:  2510charge 0 multiplicity 1
 O         0.134351         0.056137         1.087568
 C        -0.613319         1.239975         0.872350
 C        -2.033697         1.202602         0.426586
 C        -1.812400         1.823635         1.747393
 C        -1.131940         3.233888         1.490278
 O        -0.517266         3.669267         2.693825
 C         0.884865         3.202100         2.737889
 C         1.208382         3.108426         1.247974
 C        -0.053779         2.640808         0.592810
 H        -0.041990        -0.781078         0.515363
 H        -2.171354         1.891080        -0.473472
 H        -2.682488         0.165621         0.424917
 H        -2.644487         1.607496         2.528269
 H        -1.694841         3.983904         0.934633
 H         1.420052         3.911576         3.231399
 H         0.965391         2.316781         3.213942
 H         1.520122         4.089748         0.924454
 H         2.183635         2.511327         1.107905
 H         0.149725         2.742648        -0.472956
