19
Iteration:  4897charge 0 multiplicity 1
 O         0.093083        -0.005092         0.866467
 C        -0.639491         1.278126         0.835522
 C        -2.091367         1.221227         0.236826
 C        -1.695130         1.751550         1.725257
 C        -1.127452         3.145836         1.548471
 O        -0.542289         3.823598         2.727110
 C         0.808652         3.288084         2.869503
 C         1.223661         2.987795         1.375001
 C         0.038333         2.634830         0.614419
 H         0.612256        -0.031221         1.703146
 H        -2.300358         1.989398        -0.550801
 H        -2.584100         0.144897         0.280123
 H        -2.245039         1.351247         2.613979
 H        -1.931505         3.826577         1.127707
 H         1.445820         4.062921         3.459778
 H         0.745449         2.342886         3.499659
 H         1.581171         3.819405         0.760124
 H         1.959443         2.132075         1.343602
 H        -0.050441         3.038829        -0.390707
