19
Iteration:  2866charge 0 multiplicity 1
 O         0.037606        -0.058548         0.778263
 C        -0.625653         1.186819         0.793998
 C        -2.084013         1.174082         0.420805
 C        -1.797849         1.773325         1.774041
 C        -1.239058         3.144934         1.509039
 O        -0.501089         3.889111         2.640783
 C         0.833856         3.323036         2.827842
 C         1.285291         3.008579         1.487762
 C         0.046259         2.639666         0.616877
 H         0.879860        -0.164156         1.347619
 H        -2.341053         1.828488        -0.559674
 H        -2.481872         0.212931         0.385245
 H        -2.010444         1.333611         2.718914
 H        -1.971806         3.911699         1.166740
 H         1.548021         4.089297         3.339176
 H         0.873940         2.563825         3.663471
 H         1.667484         4.009469         1.001538
 H         2.204712         2.397373         1.299710
 H         0.262704         2.982415        -0.431182
