19
Iteration:    70
 O         0.057583        -0.111915         0.957429
 C        -0.618216         1.171599         0.813139
 C        -2.150277         1.243763         0.420167
 C        -1.675032         1.763316         1.741386
 C        -1.119278         3.206143         1.524737
 O        -0.570681         3.870233         2.638898
 C         0.739896         3.426948         2.775571
 C         1.379876         2.958190         1.377005
 C         0.078975         2.608341         0.634334
 H         0.526362        -0.130434         0.140104
 H        -2.738942         1.779069        -0.396122
 H        -2.613829         0.190303         0.419306
 H        -2.064806         1.398923         2.743793
 H        -1.795545         3.924957         0.944697
 H         1.027677         4.203844         3.427005
 H         0.567636         2.629414         3.547228
 H         2.023509         3.794888         0.807392
 H         1.893407         1.960146         1.651722
 H         0.006495         3.037026        -0.451411
