19
Iteration:  2683charge 0 multiplicity 1
 O         0.036577         0.034437         0.838116
 C        -0.679520         1.247275         0.851157
 C        -2.002298         1.125834         0.330562
 C        -1.696099         1.747470         1.767462
 C        -1.152786         3.267426         1.548508
 O        -0.537699         3.812327         2.692813
 C         0.803062         3.319085         2.804394
 C         1.318071         2.954294         1.366410
 C        -0.065092         2.617630         0.606330
 H         0.704260         0.186526         1.487248
 H        -2.407106         1.691683        -0.455867
 H        -2.492629         0.244983         0.559060
 H        -2.248554         1.244802         2.609823
 H        -1.659129         4.083209         1.025405
 H         1.433271         4.079960         3.372782
 H         0.963494         2.439762         3.561336
 H         1.886799         3.632131         0.794375
 H         1.875799         2.045434         1.501584
 H        -0.096312         2.918810        -0.446718
