19
Iteration:  3087
 O         0.095357         0.085300         0.919366
 C        -0.647924         1.212350         0.715516
 C        -2.030010         1.149873         0.354236
 C        -1.793498         1.857308         1.722891
 C        -1.116913         3.233336         1.523277
 O        -0.497572         3.773699         2.758335
 C         0.818773         3.308664         2.788321
 C         1.238478         2.896874         1.393327
 C        -0.088120         2.596930         0.615353
 H         1.045212         0.255555         1.227573
 H        -2.397516         1.659756        -0.482501
 H        -2.411232         0.080725         0.697384
 H        -2.457369         1.372427         2.474041
 H        -1.673002         3.953914         1.045423
 H         1.413823         4.118687         3.207962
 H         0.904317         2.455388         3.578729
 H         1.685159         3.696355         0.891616
 H         1.974200         2.056126         1.328403
 H         0.028788         3.006296        -0.360147
