19
Iteration:  4339charge 0 multiplicity 1
 O         0.059607         0.065053         0.761225
 C        -0.602348         1.220604         0.937668
 C        -2.034215         1.193139         0.346462
 C        -1.724967         1.772978         1.772810
 C        -1.183284         3.232255         1.553447
 O        -0.608531         3.807265         2.679448
 C         0.778656         3.217928         2.820468
 C         1.306278         2.991950         1.352412
 C         0.059839         2.622149         0.646341
 H         0.820247         0.163302         1.306258
 H        -2.379923         1.758884        -0.521548
 H        -2.465590         0.077002         0.457459
 H        -2.272617         1.394097         2.596466
 H        -1.892395         3.798938         1.000445
 H         1.287608         4.008268         3.331614
 H         0.742835         2.417775         3.485169
 H         1.782954         3.790245         0.991292
 H         2.087870         2.200482         1.360974
 H         0.118477         2.886481        -0.410868
