19
Iteration:  4281
 O         0.077969         0.070700         0.813457
 C        -0.615204         1.294088         0.798825
 C        -2.008143         1.179113         0.462846
 C        -1.682486         1.765831         1.750540
 C        -1.216757         3.223681         1.548128
 O        -0.572595         3.805671         2.619351
 C         0.744190         3.172984         2.841805
 C         1.269617         2.967213         1.440816
 C         0.005186         2.652287         0.545341
 H         0.684976         0.158064         1.630426
 H        -2.537234         1.765978        -0.296009
 H        -2.259822         0.217523         0.369045
 H        -1.749552         1.367167         2.837727
 H        -1.851736         3.963549         0.997650
 H         1.371416         3.834436         3.379452
 H         0.784547         2.199062         3.203415
 H         1.887136         3.761069         0.982586
 H         1.928752         2.020296         1.635145
 H        -0.056915         3.093978        -0.525109
