19
Iteration:  4499charge 0 multiplicity 1
 O         0.183488         0.075372         0.882300
 C        -0.609677         1.189530         0.822711
 C        -2.009304         1.203464         0.350445
 C        -1.718587         1.817664         1.679582
 C        -1.245831         3.244975         1.610557
 O        -0.553588         3.831108         2.761299
 C         0.760217         3.182609         2.768101
 C         1.253531         2.948404         1.320684
 C        -0.025383         2.570743         0.610917
 H         0.597248        -0.012675         1.709634
 H        -2.166925         2.034696        -0.454650
 H        -2.723035         0.357696         0.311555
 H        -2.222953         1.509783         2.515439
 H        -1.907918         4.035626         1.146586
 H         1.236915         3.942316         3.399875
 H         0.748234         2.348962         3.414326
 H         1.786501         3.904063         0.954378
 H         1.907742         2.110352         1.034815
 H         0.058696         2.837884        -0.478843
