19
Iteration:  1661charge 0 multiplicity 1
 O         0.216925         0.081302         0.962054
 C        -0.588081         1.168887         0.779723
 C        -2.061284         1.196087         0.512854
 C        -1.777487         1.850902         1.784789
 C        -1.189756         3.247171         1.496227
 O        -0.518199         3.870948         2.568700
 C         0.721307         3.153605         2.813754
 C         1.257337         2.947392         1.397013
 C         0.034342         2.620291         0.522555
 H        -0.239716        -0.627624         0.388396
 H        -2.485617         1.802831        -0.304668
 H        -2.670550         0.232908         0.612761
 H        -2.018956         1.420933         2.761991
 H        -2.016710         3.975082         1.270150
 H         1.314248         3.818710         3.401544
 H         0.636986         2.132574         3.442489
 H         1.559913         3.932812         1.140383
 H         2.146604         2.223538         1.386175
 H         0.098108         3.109319        -0.469840
