19
Iteration:  1410charge 0 multiplicity 1
 O         0.166627         0.039540         0.905163
 C        -0.570188         1.218749         0.870906
 C        -2.111859         1.264550         0.504752
 C        -1.701500         1.816992         1.792581
 C        -1.140903         3.204705         1.493601
 O        -0.573369         3.801898         2.591600
 C         0.746848         3.277190         2.805555
 C         1.225886         2.950686         1.405219
 C         0.039665         2.564775         0.560936
 H        -0.111203        -0.507049         0.175061
 H        -2.466664         1.851757        -0.341468
 H        -2.669668         0.364600         0.587552
 H        -2.004182         1.531569         2.883417
 H        -1.897686         3.844277         0.916771
 H         1.391881         4.034933         3.081492
 H         0.828702         2.272991         3.507452
 H         1.629952         3.913713         1.075646
 H         2.180554         2.284417         1.339752
 H         0.025599         2.838598        -0.565740
