19
Iteration:  1718
 O         0.163097         0.035225         0.934036
 C        -0.588135         1.202019         0.854726
 C        -2.029384         1.310139         0.405040
 C        -1.650811         1.746421         1.807102
 C        -1.142879         3.197665         1.479450
 O        -0.543180         3.809689         2.588927
 C         0.739263         3.347148         2.800766
 C         1.209648         2.910968         1.387413
 C        -0.050931         2.587302         0.666962
 H        -0.199244        -0.606810         0.358788
 H        -2.462803         2.026776        -0.301720
 H        -2.568749         0.340326         0.239221
 H        -2.195018         1.516755         2.733337
 H        -2.041419         3.812107         1.131929
 H         1.350358         4.154840         3.243972
 H         0.827101         2.331965         3.386729
 H         1.843899         3.653175         0.812506
 H         1.928147         2.031785         1.370776
 H         0.015896         3.065856        -0.349049
