19
Iteration:  2315
 O         0.155607         0.055049         0.924038
 C        -0.710195         1.234430         0.802790
 C        -2.122043         1.192877         0.348084
 C        -1.713276         1.701286         1.747626
 C        -1.161731         3.152483         1.575737
 O        -0.544885         3.850848         2.597724
 C         0.896244         3.441381         2.863400
 C         1.282013         2.863643         1.431698
 C        -0.040973         2.679938         0.628466
 H         0.392922        -0.375734         0.022258
 H        -2.425769         1.753633        -0.433440
 H        -2.484212         0.128998         0.419847
 H        -2.042860         1.208300         2.621865
 H        -1.977047         3.881564         1.247134
 H         1.341147         4.395278         3.129217
 H         0.892294         2.684718         3.609105
 H         1.970049         3.417872         0.885745
 H         1.690083         1.820672         1.605232
 H        -0.036467         2.867982        -0.417863
