19
Iteration:  3975charge 0 multiplicity 1
 O         0.122059        -0.051570         0.792084
 C        -0.665007         1.240109         0.820411
 C        -2.008524         1.215928         0.367223
 C        -1.802353         1.807423         1.768425
 C        -1.120136         3.301014         1.567378
 O        -0.586513         3.705487         2.738548
 C         0.811537         3.365357         2.762996
 C         1.282981         2.947648         1.361316
 C        -0.025160         2.641703         0.646110
 H         0.864247         0.073002         1.389104
 H        -2.411099         1.737005        -0.625240
 H        -2.507560         0.132912         0.650227
 H        -2.176079         1.463001         2.661526
 H        -1.868121         3.952476         1.053277
 H         1.420134         4.110242         3.344253
 H         0.807684         2.460426         3.351947
 H         1.695083         3.778261         0.835825
 H         2.083572         2.133381         1.482333
 H         0.089611         2.925866        -0.356335
