19
Iteration:  1008charge 0 multiplicity 1
 O         0.086603         0.025624         1.144559
 C        -0.671400         1.216349         0.797087
 C        -2.056496         1.259296         0.338575
 C        -1.776906         1.761868         1.710904
 C        -1.178305         3.215696         1.545901
 O        -0.538196         3.686338         2.710301
 C         0.863496         3.346388         2.668385
 C         1.314414         2.965947         1.307355
 C        -0.014792         2.684137         0.630758
 H         0.139697        -0.503531         0.351930
 H        -2.258605         1.924269        -0.420093
 H        -2.516347         0.248601         0.210147
 H        -2.047595         1.523530         2.718330
 H        -1.936461         3.853764         1.198334
 H         1.385797         4.285961         3.037943
 H         1.107170         2.519355         3.439331
 H         1.831121         3.787081         0.822513
 H         1.966587         2.028796         1.251524
 H         0.042449         3.005542        -0.455658
