19
Iteration:  4146charge 0 multiplicity 1
 O         0.132539         0.076545         0.865667
 C        -0.657138         1.257779         0.854439
 C        -2.029974         1.254220         0.354323
 C        -1.789928         1.731269         1.762626
 C        -1.148660         3.196135         1.538378
 O        -0.594959         3.768585         2.684986
 C         0.833273         3.160715         2.777928
 C         1.299069         3.009905         1.341201
 C        -0.021759         2.666675         0.643390
 H         0.451425        -0.070033         1.806192
 H        -2.379463         1.806331        -0.451169
 H        -2.268019         0.154911         0.336010
 H        -2.237690         1.395497         2.633847
 H        -1.769115         4.041539         1.161375
 H         1.468952         4.014596         3.196286
 H         0.869394         2.317076         3.442447
 H         1.707162         4.036790         0.946893
 H         2.023683         2.185934         1.166151
 H        -0.038699         2.738199        -0.511850
