19
Iteration:   685charge 0 multiplicity 1
 O         0.236432         0.156337         0.978870
 C        -0.635843         1.205548         0.889167
 C        -2.111285         1.147322         0.536674
 C        -1.736598         1.892740         1.782766
 C        -1.134474         3.276344         1.456389
 O        -0.483342         3.900656         2.563209
 C         0.677633         3.086898         2.740639
 C         1.263582         2.878918         1.352077
 C        -0.030984         2.618376         0.634186
 H         0.333615        -0.411786         0.145009
 H        -2.456000         1.838120        -0.379373
 H        -2.626085         0.236753         0.729238
 H        -2.281751         1.439129         2.611955
 H        -1.845895         4.029057         1.098763
 H         1.307313         3.615253         3.419194
 H         0.373701         2.051065         3.017273
 H         1.971763         3.767725         1.024552
 H         1.809850         1.940366         1.307443
 H         0.118272         2.784482        -0.537105
