19
Iteration:  4169
 O         0.134593         0.021422         0.893142
 C        -0.672617         1.226714         0.776401
 C        -2.068962         1.193692         0.359883
 C        -1.682894         1.779510         1.710381
 C        -1.176685         3.210508         1.515276
 O        -0.528479         3.745386         2.711524
 C         0.823039         3.186459         2.817746
 C         1.243588         3.051152         1.356269
 C        -0.016970         2.684141         0.615710
 H         0.318607         0.009048         1.810433
 H        -2.389362         1.666984        -0.503980
 H        -2.733160         0.281031         0.618227
 H        -2.036640         1.502493         2.610278
 H        -1.799769         4.118494         1.272536
 H         1.258452         4.028310         3.484683
 H         0.851531         2.247351         3.356846
 H         1.520808         4.060376         0.846096
 H         2.061207         2.276998         1.339780
 H         0.121633         3.011910        -0.528781
