19
Iteration:   834charge 0 multiplicity 1
 O         0.207420         0.123710         1.029507
 C        -0.657918         1.257342         0.832026
 C        -2.062225         1.128528         0.409442
 C        -1.711722         1.822917         1.714942
 C        -1.117161         3.278376         1.499243
 O        -0.454642         3.905411         2.648366
 C         0.806786         3.108037         2.777841
 C         1.177894         2.890481         1.373620
 C        -0.112815         2.616057         0.500755
 H        -0.266509        -0.703658         0.904309
 H        -2.460640         1.734878        -0.411024
 H        -2.491365         0.217647         0.585622
 H        -2.297487         1.626675         2.766387
 H        -1.928530         4.000203         1.265772
 H         1.535819         3.743975         3.352315
 H         0.594323         2.246986         3.426416
 H         1.588232         3.828990         1.053337
 H         1.977874         2.151663         1.260364
 H         0.090900         2.937753        -0.537532
