19
Iteration:  4325
 O         0.137168        -0.013539         0.770493
 C        -0.610921         1.211699         0.812756
 C        -2.010010         1.224035         0.388015
 C        -1.783790         1.793898         1.765095
 C        -1.218925         3.186543         1.534572
 O        -0.497619         3.837274         2.641209
 C         0.756822         3.279374         2.828956
 C         1.265753         2.991864         1.453208
 C        -0.050992         2.584946         0.663109
 H         0.987054        -0.008990         1.337142
 H        -2.228980         2.004904        -0.340570
 H        -2.457130         0.334642         0.301401
 H        -2.255838         1.425401         2.767202
 H        -1.874272         4.038324         1.298291
 H         1.322162         3.946755         3.422612
 H         0.597048         2.262241         3.308868
 H         1.553934         3.977943         0.947702
 H         2.120903         2.182082         1.275686
 H         0.075990         2.848856        -0.453069
