19
Iteration:  4252charge 0 multiplicity 1
 O         0.188967         0.086372         0.826402
 C        -0.644257         1.221749         0.799890
 C        -2.072219         1.149063         0.441300
 C        -1.664550         1.855317         1.696355
 C        -1.202883         3.280648         1.518483
 O        -0.547266         3.801999         2.676131
 C         0.740012         3.155950         2.848104
 C         1.261177         2.909601         1.415748
 C        -0.059835         2.633919         0.558255
 H         0.831905         0.232330         1.559330
 H        -2.458311         1.796318        -0.420280
 H        -2.554755         0.125300         0.686037
 H        -2.049663         1.564746         2.712488
 H        -1.826044         4.069260         1.126684
 H         1.395347         3.833717         3.388233
 H         0.747694         2.111636         3.341522
 H         1.644372         3.792610         0.988515
 H         2.058745         2.218944         1.462030
 H        -0.095847         3.029100        -0.424256
