19
Iteration:  4761charge 0 multiplicity 1
 O         0.184485         0.074453         0.847393
 C        -0.587086         1.255021         0.777605
 C        -2.097655         1.095168         0.381229
 C        -1.714802         1.918509         1.708200
 C        -1.179012         3.270250         1.469511
 O        -0.559380         3.784908         2.712034
 C         0.768203         3.130616         2.843373
 C         1.261691         2.945787         1.395104
 C        -0.040256         2.664721         0.627335
 H         0.509776         0.014586         1.815629
 H        -2.422306         1.703275        -0.477583
 H        -2.471026         0.127418         0.597229
 H        -2.214425         1.703731         2.682081
 H        -1.887513         3.976966         1.017615
 H         1.472626         3.712001         3.481138
 H         0.545039         2.136016         3.292351
 H         1.725191         3.892027         0.993985
 H         1.997250         2.109819         1.368152
 H         0.063121         2.978892        -0.350419
