19
Iteration:  4893charge 0 multiplicity 1
 O         0.099270        -0.010794         0.859888
 C        -0.646601         1.222258         0.825371
 C        -2.071586         1.255676         0.270230
 C        -1.706718         1.792080         1.680929
 C        -1.114454         3.136677         1.569261
 O        -0.545784         3.805908         2.713566
 C         0.805414         3.290005         2.848769
 C         1.255524         2.994904         1.385041
 C        -0.000434         2.620123         0.628617
 H         0.671369        -0.061660         1.667773
 H        -2.363770         1.873807        -0.561138
 H        -2.585648         0.250122         0.297795
 H        -2.212761         1.402621         2.699391
 H        -1.839406         3.821700         1.169317
 H         1.298633         4.010876         3.372402
 H         0.723437         2.454846         3.564288
 H         1.497927         3.916219         0.860406
 H         1.996022         2.262746         1.395674
 H        -0.042757         3.066103        -0.338207
