19
Iteration:  4744charge 0 multiplicity 1
 O         0.090709         0.068932         0.918292
 C        -0.646991         1.240925         0.797990
 C        -2.016701         1.217517         0.367046
 C        -1.760664         1.755546         1.682895
 C        -1.131514         3.237453         1.495149
 O        -0.500492         3.799943         2.740229
 C         0.726824         3.154467         2.837905
 C         1.219657         3.003352         1.421946
 C         0.025216         2.620023         0.505604
 H         0.856696         0.298338         1.564551
 H        -2.533532         1.672095        -0.521723
 H        -2.404744         0.196794         0.530448
 H        -2.102601         1.249941         2.620708
 H        -1.764408         4.103003         1.237498
 H         1.287077         3.888785         3.406936
 H         0.711577         2.200248         3.393460
 H         1.627537         3.930615         1.094951
 H         2.078495         2.327057         1.255186
 H         0.058869         2.942031        -0.616801
