19
Iteration:  1054
 O         0.240309         0.223008         1.040694
 C        -0.641001         1.264043         0.853876
 C        -2.029114         1.081432         0.435520
 C        -1.821701         1.866390         1.755669
 C        -1.172055         3.286360         1.495712
 O        -0.456474         3.844281         2.607829
 C         0.758015         3.000669         2.792697
 C         1.279843         2.934807         1.322038
 C        -0.052925         2.657204         0.557754
 H        -0.273655        -0.541877         0.906676
 H        -2.507533         1.597898        -0.321588
 H        -2.607625         0.117887         0.627876
 H        -2.512868         1.527389         2.511346
 H        -1.771190         4.028275         0.993490
 H         1.431420         3.490444         3.555679
 H         0.641661         1.915453         3.105030
 H         1.623401         3.927331         0.908107
 H         2.000558         2.173664         1.121927
 H        -0.153335         3.071860        -0.532620
