19
Iteration:  2547charge 0 multiplicity 1
 O         0.070168         0.064162         1.099311
 C        -0.627965         1.209309         0.771329
 C        -2.016920         1.190755         0.390730
 C        -1.720963         1.690554         1.798260
 C        -1.161139         3.204871         1.563359
 O        -0.506068         3.894525         2.659207
 C         0.813318         3.165609         2.707431
 C         1.238620         2.982913         1.315836
 C        -0.068218         2.708029         0.552079
 H         0.814417        -0.035614         0.434436
 H        -2.456542         1.804757        -0.380353
 H        -2.462346         0.300628         0.410303
 H        -2.144817         1.243033         2.674073
 H        -1.875858         4.044141         1.187126
 H         1.592273         3.762132         3.327349
 H         0.751534         2.146325         3.286162
 H         1.694478         3.894276         0.858843
 H         1.847389         2.077656         1.195363
 H        -0.018426         3.066408        -0.502039
