19
Iteration:  1260charge 0 multiplicity 1
 O         0.241941         0.190660         1.072894
 C        -0.637718         1.283942         0.857382
 C        -2.084551         1.226315         0.489953
 C        -1.684298         1.770322         1.759471
 C        -1.152381         3.257001         1.473519
 O        -0.468753         3.807215         2.601908
 C         0.632629         3.047213         2.785399
 C         1.200818         2.902900         1.320426
 C        -0.018210         2.651580         0.507286
 H         0.063365        -0.425542         0.327827
 H        -2.452421         1.896340        -0.347842
 H        -2.463277         0.159852         0.467810
 H        -2.050166         1.473518         2.830211
 H        -1.818752         3.971671         1.038696
 H         1.504044         3.684767         3.254727
 H         0.520395         2.107345         3.309481
 H         1.586101         3.895991         0.992297
 H         1.961405         2.127451         1.328919
 H        -0.039028         2.942420        -0.507028
