19
Iteration:  4624
 O         0.187209         0.045228         0.842625
 C        -0.587923         1.228988         0.789383
 C        -2.051988         1.215127         0.385791
 C        -1.663412         1.805348         1.746642
 C        -1.206490         3.184807         1.531003
 O        -0.496683         3.871789         2.651428
 C         0.678660         3.168068         2.871245
 C         1.219357         2.902884         1.403650
 C        -0.066345         2.690226         0.556219
 H         0.678641         0.128141         1.639099
 H        -2.267210         1.948753        -0.367098
 H        -2.463499         0.312390         0.377526
 H        -2.004519         1.570075         2.799182
 H        -2.066283         3.806171         1.336961
 H         1.393605         3.824822         3.271689
 H         0.412621         2.272179         3.504502
 H         1.859355         3.725861         1.103526
 H         1.877382         1.912404         1.370425
 H        -0.077634         2.947147        -0.549995
