19
Iteration:   841charge 0 multiplicity 1
 O         0.230812         0.154716         0.994867
 C        -0.607943         1.230389         0.822196
 C        -2.115323         1.162564         0.441563
 C        -1.731642         1.864530         1.762215
 C        -1.180243         3.273583         1.485291
 O        -0.484911         3.914599         2.633392
 C         0.767671         3.078575         2.784778
 C         1.210244         2.888641         1.320551
 C        -0.010607         2.591422         0.583550
 H        -0.156927        -0.671147         0.844851
 H        -2.535671         1.577967        -0.485457
 H        -2.497369         0.142476         0.715803
 H        -2.138176         1.716667         2.760786
 H        -1.814159         4.094923         1.195401
 H         1.458712         3.670779         3.387034
 H         0.488847         2.111861         3.184163
 H         1.625661         3.843200         1.012374
 H         1.837203         1.941733         1.263091
 H         0.072630         2.862036        -0.524094
