19
Iteration:   424charge 0 multiplicity 1
 O         0.174885         0.121067         1.052893
 C        -0.677469         1.205278         0.877283
 C        -2.052708         1.171264         0.346833
 C        -1.793285         1.817609         1.713463
 C        -1.174182         3.218337         1.499714
 O        -0.509531         3.884554         2.636452
 C         0.859947         3.178993         2.761943
 C         1.283961         2.954730         1.318265
 C        -0.035558         2.588961         0.669725
 H        -0.296123        -0.599966         0.665494
 H        -2.473907         1.603054        -0.535321
 H        -2.443828         0.106159         0.388685
 H        -2.456162         1.289987         2.536707
 H        -1.775862         4.015614         1.012671
 H         1.536635         3.964657         3.235904
 H         0.774855         2.280580         3.411026
 H         1.757977         3.922051         0.990273
 H         2.068603         2.230150         1.149715
 H        -0.008870         2.947429        -0.316893
