19
Iteration:  2434
 O         0.235973         0.219315         0.960145
 C        -0.645856         1.220648         0.880986
 C        -2.030931         1.203893         0.365078
 C        -1.723098         1.740965         1.771405
 C        -1.183415         3.238918         1.518682
 O        -0.491128         3.819197         2.654139
 C         0.771691         3.186356         2.755273
 C         1.262552         2.876323         1.261353
 C        -0.144882         2.605230         0.586870
 H         0.121381        -0.253490         1.764578
 H        -2.226329         1.931533        -0.406017
 H        -2.621962         0.224424         0.366575
 H        -2.420764         1.688076         2.635232
 H        -2.027714         3.937539         1.464671
 H         1.380536         3.779744         3.301310
 H         0.744261         2.150382         3.364848
 H         1.907523         3.638108         0.825792
 H         1.919987         1.967545         1.420847
 H        -0.108424         2.922583        -0.441167
