19
Iteration:  3181
 O         0.071140         0.071501         0.798336
 C        -0.604277         1.273735         0.817892
 C        -2.069996         1.137271         0.426795
 C        -1.701164         1.764383         1.777561
 C        -1.188278         3.218645         1.516599
 O        -0.598159         3.844182         2.611082
 C         0.762590         3.270932         2.851587
 C         1.333038         2.848569         1.441047
 C         0.014294         2.689999         0.610827
 H         0.767229        -0.030125         1.422637
 H        -2.384540         1.719174        -0.434812
 H        -2.646785         0.109767         0.571773
 H        -2.128037         1.254914         2.684443
 H        -1.928670         4.025020         1.041829
 H         1.468349         4.031132         3.215825
 H         0.969009         2.437586         3.527735
 H         1.888235         3.825432         1.175700
 H         2.036808         2.004287         1.240184
 H         0.080677         2.995556        -0.503266
