19
Iteration:  4762charge 0 multiplicity 1
 O         0.188619         0.073835         0.843922
 C        -0.591369         1.258602         0.781092
 C        -2.091786         1.087907         0.390033
 C        -1.719178         1.909921         1.705878
 C        -1.166598         3.279632         1.471711
 O        -0.565435         3.782859         2.704780
 C         0.771666         3.132351         2.838281
 C         1.262512         2.936539         1.400150
 C        -0.037280         2.674069         0.629367
 H         0.493315         0.009803         1.823389
 H        -2.416663         1.729491        -0.474122
 H        -2.495970         0.151121         0.589828
 H        -2.242793         1.697648         2.705004
 H        -1.881771         4.001948         1.045564
 H         1.413069         3.708290         3.476587
 H         0.530030         2.141745         3.274382
 H         1.714375         3.843670         1.000468
 H         1.978293         2.143062         1.315323
 H         0.055129         2.982800        -0.334677
