19
Iteration:  3408
 O         0.104631        -0.099783         0.893430
 C        -0.596578         1.170264         0.792449
 C        -1.980199         1.311212         0.349639
 C        -1.726646         1.731110         1.773286
 C        -1.101751         3.185301         1.562686
 O        -0.524168         3.863213         2.696726
 C         0.782378         3.203537         2.831018
 C         1.193680         3.038847         1.293995
 C        -0.062831         2.692674         0.602711
 H         0.333369        -0.220514         1.874279
 H        -2.116400         2.124284        -0.399613
 H        -2.415970         0.359703         0.268431
 H        -2.303229         1.480024         2.567341
 H        -1.947040         3.927090         1.181714
 H         1.439687         3.977057         3.400055
 H         0.539206         2.249884         3.362972
 H         1.578378         4.069047         0.973652
 H         1.822431         2.222814         1.070241
 H        -0.059597         3.058042        -0.407503
