19
Iteration:  2153
 O         0.182433         0.098143         1.029342
 C        -0.683508         1.225964         0.815995
 C        -2.059396         1.073054         0.319502
 C        -1.761206         1.856053         1.785255
 C        -1.200555         3.289116         1.560434
 O        -0.448824         3.830167         2.677193
 C         0.770294         3.171568         2.765831
 C         1.211588         2.937255         1.324414
 C        -0.045956         2.629266         0.589746
 H         0.927688         0.187750         0.441065
 H        -2.270372         1.629292        -0.565234
 H        -2.706394         0.117212         0.402587
 H        -2.201598         1.533608         2.724277
 H        -1.909047         4.078316         1.368677
 H         1.542141         3.830832         3.113513
 H         0.726877         2.166889         3.223735
 H         1.686308         3.812110         0.944724
 H         1.977508         2.095713         1.363496
 H        -0.034948         2.973885        -0.441076
