19
Iteration:   370
 O         0.132469         0.130595         0.965874
 C        -0.650905         1.261348         0.808573
 C        -2.109580         1.128143         0.444773
 C        -1.677815         1.838280         1.773410
 C        -1.162800         3.195006         1.453392
 O        -0.488513         3.838514         2.579479
 C         0.738832         3.244596         2.815978
 C         1.290970         2.922245         1.395172
 C         0.023230         2.591524         0.564678
 H        -0.506427        -0.598917         0.805068
 H        -2.547184         1.695881        -0.334348
 H        -2.546921         0.081640         0.569059
 H        -1.950918         1.362610         2.839988
 H        -1.831438         4.004133         1.094573
 H         1.319717         3.993604         3.458078
 H         0.656403         2.358928         3.464871
 H         1.808237         3.828689         1.030546
 H         1.992945         2.111671         1.520711
 H         0.137314         2.953283        -0.443898
