19
Iteration:  4741charge 0 multiplicity 1
 O         0.077068         0.060685         0.931138
 C        -0.613683         1.261247         0.797036
 C        -2.035189         1.185436         0.343738
 C        -1.759669         1.759739         1.700587
 C        -1.107795         3.239284         1.521104
 O        -0.517588         3.787316         2.715515
 C         0.745242         3.171370         2.840242
 C         1.229878         2.990706         1.411294
 C         0.020790         2.632065         0.513358
 H         0.829009         0.349961         1.468377
 H        -2.472521         1.847759        -0.519254
 H        -2.429351         0.239030         0.491119
 H        -2.150501         1.202296         2.632732
 H        -1.788659         4.059917         1.256645
 H         1.281310         3.849635         3.401809
 H         0.634618         2.207270         3.375359
 H         1.533055         3.955589         1.091185
 H         2.021595         2.387083         1.221608
 H         0.084706         2.915831        -0.490299
