19
Iteration:  1505charge 0 multiplicity 1
 O         0.276011         0.085560         0.951196
 C        -0.622001         1.215543         0.815494
 C        -2.083394         1.153412         0.420449
 C        -1.803106         1.906074         1.820906
 C        -1.189624         3.266388         1.506416
 O        -0.557391         3.735100         2.652822
 C         0.814527         3.242360         2.764879
 C         1.292863         2.932620         1.369806
 C        -0.084085         2.641863         0.546225
 H        -0.293166        -0.651775         0.990868
 H        -2.446690         1.774112        -0.434105
 H        -2.524241         0.096791         0.225234
 H        -2.298742         1.597039         2.807938
 H        -1.669762         4.132716         1.024686
 H         1.328867         4.081021         3.342081
 H         0.748206         2.373404         3.385374
 H         1.979334         3.658624         0.947898
 H         1.994997         2.035561         1.400569
 H         0.038119         2.939874        -0.476470
