19
Iteration:  3297
 O         0.148222         0.065553         0.919846
 C        -0.568676         1.230311         0.820105
 C        -2.075714         1.265904         0.346778
 C        -1.648821         1.778020         1.741801
 C        -1.161789         3.214207         1.568281
 O        -0.513326         3.826882         2.641705
 C         0.678110         3.116208         2.807004
 C         1.280942         2.975730         1.309892
 C        -0.036339         2.631777         0.589628
 H         0.409916        -0.097932         1.809087
 H        -2.606380         1.750637        -0.444160
 H        -2.540737         0.244002         0.602540
 H        -2.147414         1.523385         2.763147
 H        -1.953578         3.916967         1.121627
 H         1.325588         3.650424         3.551036
 H         0.530155         2.215112         3.343315
 H         1.471427         4.062806         1.116452
 H         2.158961         2.364192         1.159901
 H        -0.160444         3.009443        -0.411649
