19
Iteration:  1973
 O         0.127057         0.033959         0.943315
 C        -0.668756         1.203996         0.890749
 C        -2.050825         1.154725         0.490230
 C        -1.688735         1.866224         1.784692
 C        -1.101246         3.253614         1.421733
 O        -0.519870         3.825829         2.641854
 C         0.684574         3.163398         2.812942
 C         1.267657         2.977686         1.376340
 C        -0.004834         2.669129         0.539319
 H         0.093354        -0.397259         0.062288
 H        -2.513487         1.601773        -0.319847
 H        -2.511997         0.110660         0.663397
 H        -2.129017         1.529460         2.693410
 H        -1.828189         4.009842         0.995429
 H         1.509864         3.849157         3.385128
 H         0.790442         2.136396         3.376570
 H         1.600683         4.019791         1.091962
 H         2.092360         2.335562         1.219889
 H         0.179336         3.048894        -0.510910
