19
Iteration:  3562charge 0 multiplicity 1
 O         0.074336        -0.003541         0.837644
 C        -0.645860         1.278262         0.847522
 C        -2.083353         1.165119         0.434778
 C        -1.760210         1.813606         1.695757
 C        -1.144037         3.152984         1.479580
 O        -0.501681         3.759131         2.716210
 C         0.780786         3.286870         2.847336
 C         1.294373         3.016123         1.386241
 C         0.005175         2.688925         0.531376
 H         0.746038        -0.073644         1.513902
 H        -2.532531         1.673354        -0.378487
 H        -2.511912         0.116957         0.416583
 H        -2.057310         1.440624         2.752336
 H        -1.925316         3.978838         1.169756
 H         1.269813         4.080978         3.524744
 H         0.684467         2.301549         3.369775
 H         1.916069         3.895070         1.093797
 H         2.055081         2.336987         1.325566
 H         0.079368         2.799621        -0.520418
