19
Iteration:   247charge 0 multiplicity 1
 O         0.052056         0.028190         1.091501
 C        -0.630377         1.185074         0.858808
 C        -2.087977         1.175237         0.380904
 C        -1.785506         1.847164         1.769155
 C        -1.191842         3.229093         1.483702
 O        -0.571083         3.692313         2.667288
 C         0.872430         3.361551         2.746838
 C         1.358319         3.037943         1.365901
 C         0.071660         2.621943         0.512906
 H         0.255703        -0.482665         0.314348
 H        -2.449137         1.788789        -0.526362
 H        -2.489291         0.256489         0.626648
 H        -2.304029         1.659529         2.596700
 H        -1.749241         4.123320         1.030791
 H         1.401633         4.052333         3.363935
 H         0.798836         2.352719         3.202391
 H         1.827419         3.841417         0.709953
 H         1.897822         2.059707         1.461133
 H         0.084790         2.786971        -0.521220
