19
Iteration:  1534
 O         0.137135         0.056593         1.093223
 C        -0.600405         1.205251         0.795590
 C        -2.052468         1.200882         0.224330
 C        -1.733829         1.782845         1.777347
 C        -1.205173         3.209081         1.654601
 O        -0.492409         3.855981         2.663043
 C         0.857014         3.241082         2.756322
 C         1.248507         3.024173         1.322597
 C        -0.056610         2.570950         0.596806
 H        -0.352558        -0.598974         0.558086
 H        -2.575198         1.774419        -0.548968
 H        -2.368174         0.107380         0.432349
 H        -2.463939         1.340676         2.423472
 H        -1.822004         3.938475         1.138740
 H         1.562422         3.925076         3.382150
 H         0.726061         2.162634         3.267314
 H         1.484302         4.048540         0.863560
 H         2.135980         2.543063         1.154716
 H         0.131778         2.814629        -0.484849
