19
Iteration:  1584charge 0 multiplicity 1
 O         0.053221         0.100197         1.091957
 C        -0.583164         1.185029         0.784230
 C        -2.048406         1.165840         0.439762
 C        -1.807242         1.854505         1.755262
 C        -1.197358         3.246634         1.516413
 O        -0.534238         3.702656         2.701398
 C         0.771361         3.223549         2.730524
 C         1.311958         3.027354         1.322826
 C         0.015277         2.594924         0.494464
 H         0.655584        -0.089721         0.368779
 H        -2.294870         1.802863        -0.446959
 H        -2.417325         0.203739         0.438606
 H        -1.950703         1.568045         2.777483
 H        -1.786630         4.162121         1.132447
 H         1.324447         3.911037         3.338894
 H         0.813382         2.254896         3.295371
 H         1.632631         4.008767         1.035535
 H         2.271561         2.285514         1.201511
 H         0.142325         2.932795        -0.541514
