19
Iteration:  4034
 O         0.144116         0.073764         0.790888
 C        -0.568123         1.265566         0.820211
 C        -2.109848         1.163185         0.397444
 C        -1.678839         1.715566         1.779775
 C        -1.146245         3.195083         1.526813
 O        -0.535227         3.916461         2.651133
 C         0.751969         3.211378         2.854926
 C         1.243165         2.891885         1.390165
 C        -0.029944         2.666709         0.580480
 H         0.513637         0.008540         1.680204
 H        -2.503250         1.865673        -0.309160
 H        -2.636334         0.229345         0.354919
 H        -2.082476         1.476888         2.906517
 H        -1.975582         3.855927         1.299487
 H         1.389988         3.607990         3.589805
 H         0.364606         2.233517         3.251517
 H         1.729065         3.871303         0.947335
 H         2.050396         2.146814         1.353011
 H         0.116708         3.015537        -0.546949
