19
Iteration:  4689
 O         0.086132         0.033127         0.854840
 C        -0.601618         1.190989         0.838706
 C        -1.998857         1.212268         0.290539
 C        -1.725244         1.832624         1.725760
 C        -1.196680         3.233199         1.525765
 O        -0.559278         3.802105         2.739810
 C         0.792236         3.206928         2.814764
 C         1.249640         2.989530         1.375707
 C        -0.022808         2.552071         0.645563
 H         0.776602         0.162236         1.587434
 H        -2.178168         1.860541        -0.587849
 H        -2.428530         0.299907         0.348094
 H        -2.188773         1.621329         2.749077
 H        -1.840235         4.013101         1.095534
 H         1.309758         3.977568         3.280213
 H         0.893077         2.302160         3.458618
 H         1.482147         3.932121         0.969114
 H         2.112509         2.319048         1.213802
 H        -0.080960         2.994032        -0.425109
