19
Iteration:  1043
 O         0.238225         0.200534         1.056577
 C        -0.663828         1.242605         0.889996
 C        -2.072761         1.136118         0.348969
 C        -1.812546         1.902662         1.749242
 C        -1.186142         3.286594         1.509910
 O        -0.468390         3.787195         2.669982
 C         0.795883         3.110154         2.712313
 C         1.224886         2.906558         1.304530
 C        -0.054764         2.596150         0.607835
 H        -0.042989        -0.668874         0.764065
 H        -2.315681         1.648892        -0.516118
 H        -2.449406         0.065542         0.365743
 H        -2.061677         1.564956         2.732163
 H        -1.742067         4.146537         1.192211
 H         1.581547         3.665472         3.289397
 H         0.472474         2.172004         3.242329
 H         1.526759         3.953999         1.021748
 H         2.024722         2.209837         1.147814
 H         0.175817         2.741176        -0.524045
