19
Iteration:  2323charge 0 multiplicity 1
 O         0.166046         0.068569         0.921245
 C        -0.661328         1.149561         0.812560
 C        -2.116247         1.228313         0.342882
 C        -1.724417         1.672329         1.779675
 C        -1.169017         3.180437         1.562119
 O        -0.518460         3.900441         2.640755
 C         0.829047         3.437314         2.806257
 C         1.251718         2.850110         1.445508
 C        -0.013056         2.594912         0.589426
 H         0.431453         0.036448        -0.054209
 H        -2.640511         1.874087        -0.374761
 H        -2.557581         0.209433         0.269499
 H        -2.229993         1.435871         2.684354
 H        -2.069200         3.691677         1.296967
 H         1.404223         4.219168         3.154732
 H         0.934669         2.703213         3.715184
 H         2.015883         3.420059         0.854883
 H         1.842201         1.953985         1.613234
 H         0.001117         3.061419        -0.401975
