19
Iteration:  1070
 O         0.260773         0.189945         1.021859
 C        -0.600959         1.271643         0.841147
 C        -2.111627         1.149825         0.501181
 C        -1.717313         1.927633         1.729788
 C        -1.169532         3.247455         1.482203
 O        -0.455054         3.789732         2.581109
 C         0.672047         2.972794         2.747607
 C         1.253202         2.947352         1.332249
 C        -0.082347         2.714972         0.546683
 H        -0.162687        -0.638150         1.158679
 H        -2.488453         1.334533        -0.602678
 H        -2.264690         0.151651         0.779285
 H        -1.950141         1.713507         2.806558
 H        -1.899164         4.094570         1.268137
 H         1.308615         3.456125         3.467240
 H         0.224712         2.082569         3.108784
 H         1.791905         3.894742         1.270713
 H         1.859923         2.008670         1.211712
 H         0.028025         2.923416        -0.483213
