19
Iteration:  4835charge 0 multiplicity 1
 O         0.067341         0.038660         0.871972
 C        -0.596085         1.202222         0.776686
 C        -2.015578         1.200484         0.345587
 C        -1.699176         1.782238         1.760814
 C        -1.197493         3.237533         1.533140
 O        -0.544376         3.812998         2.668587
 C         0.773432         3.186938         2.854670
 C         1.233515         2.970770         1.409531
 C        -0.022372         2.669605         0.587101
 H         0.768180         0.008563         1.534623
 H        -2.427260         1.885905        -0.417853
 H        -2.375919         0.217827         0.364655
 H        -2.183428         1.429508         2.608007
 H        -1.908925         3.963606         1.141636
 H         1.355860         3.910136         3.510903
 H         0.655726         2.194782         3.317840
 H         1.778436         3.870374         0.975808
 H         2.134750         2.264790         1.336852
 H         0.365140         3.092354        -0.429368
