19
Iteration:  4116charge 0 multiplicity 1
 O         0.149824         0.003570         0.903290
 C        -0.630392         1.214218         0.821194
 C        -2.016805         1.249297         0.352674
 C        -1.735648         1.748816         1.730021
 C        -1.124184         3.222748         1.563625
 O        -0.525790         3.819061         2.729704
 C         0.777625         3.181144         2.809578
 C         1.205707         2.983849         1.350068
 C        -0.096035         2.689604         0.547792
 H         0.897449         0.268562         1.406892
 H        -2.375590         1.848049        -0.523438
 H        -2.517919         0.175055         0.247770
 H        -2.178765         1.419991         2.574619
 H        -1.841489         4.097397         1.303714
 H         1.438044         4.056995         3.272516
 H         0.696738         2.268979         3.490543
 H         1.847723         3.782510         1.035605
 H         1.800256         2.049927         1.374667
 H        -0.064538         2.855839        -0.603886
