19
Iteration:  2507charge 0 multiplicity 1
 O         0.126389         0.058226         1.074918
 C        -0.592492         1.257918         0.880597
 C        -2.042439         1.195154         0.440971
 C        -1.808572         1.843163         1.736650
 C        -1.157043         3.264490         1.485269
 O        -0.522521         3.634799         2.695663
 C         0.857793         3.214862         2.723072
 C         1.229561         3.086175         1.238693
 C        -0.035946         2.624438         0.616468
 H        -0.075237        -0.796794         0.681329
 H        -2.214331         1.906514        -0.370042
 H        -2.565139         0.134363         0.357113
 H        -2.543565         1.612313         2.421816
 H        -1.712752         3.960867         0.910395
 H         1.530649         4.011355         3.316573
 H         1.036888         2.261444         3.249982
 H         1.499430         4.130042         0.904286
 H         2.118464         2.520143         1.044882
 H         0.106410         2.798560        -0.487010
