19
Iteration:  1163
 O         0.131036        -0.055096         0.870550
 C        -0.654482         1.186572         0.832692
 C        -2.084138         1.269483         0.419022
 C        -1.689899         1.757570         1.727539
 C        -1.201106         3.186941         1.496535
 O        -0.575602         3.834208         2.687155
 C         0.868149         3.447815         2.817771
 C         1.312129         2.954138         1.426542
 C        -0.002894         2.571095         0.633475
 H        -0.232729        -0.814209         0.297739
 H        -2.245132         2.040590        -0.262579
 H        -2.608633         0.322023         0.433394
 H        -2.117048         1.330179         2.702203
 H        -1.940906         3.823754         1.050433
 H         1.358288         4.430228         3.021603
 H         0.943714         2.653018         3.560133
 H         1.782072         3.797369         0.847252
 H         1.866854         2.051533         1.398653
 H        -0.011493         2.879410        -0.403274
