19
Iteration:  2340
 O         0.174390         0.019934         0.840643
 C        -0.652871         1.200741         0.813292
 C        -2.069906         1.259126         0.442088
 C        -1.682016         1.763111         1.788976
 C        -1.159972         3.170132         1.576557
 O        -0.581374         3.929677         2.624190
 C         0.764186         3.346643         2.760328
 C         1.224127         2.821804         1.417652
 C        -0.031434         2.566473         0.696854
 H         0.935329         0.009056         0.213191
 H        -2.257629         2.050561        -0.412887
 H        -2.685612         0.414600         0.434204
 H        -2.057316         1.159509         2.697089
 H        -1.749963         3.929560         0.958911
 H         1.430159         4.280147         3.163485
 H         0.723650         2.605223         3.492265
 H         1.779553         3.585544         0.789625
 H         1.956646         1.997155         1.521810
 H        -0.021711         2.702558        -0.432042
