19
Iteration:  4997charge 0 multiplicity 1
 O         0.088935         0.034233         0.893236
 C        -0.591746         1.263796         0.823541
 C        -1.990782         1.173754         0.359733
 C        -1.695568         1.825275         1.771458
 C        -1.196999         3.267791         1.555305
 O        -0.531973         3.819325         2.664406
 C         0.666618         3.085635         2.786548
 C         1.233463         2.940857         1.399009
 C         0.010504         2.694129         0.562231
 H         0.954836         0.196853         1.218208
 H        -2.256579         1.821287        -0.600342
 H        -2.348209         0.209572         0.581779
 H        -1.811770         1.444585         2.687180
 H        -1.945828         4.074004         1.177268
 H         1.218835         3.753619         3.617648
 H         0.294317         2.181840         3.275280
 H         1.687919         3.903214         1.040444
 H         2.104237         2.203046         1.260326
 H         0.210782         3.002420        -0.470237
