19
Iteration:  4846charge 0 multiplicity 1
 O         0.023027         0.020219         0.822573
 C        -0.609598         1.293726         0.841457
 C        -1.983123         1.162659         0.378077
 C        -1.710578         1.803324         1.750474
 C        -1.135989         3.247715         1.502035
 O        -0.558971         3.755138         2.679621
 C         0.711388         3.199715         2.804088
 C         1.302908         3.014070         1.406195
 C         0.025965         2.624622         0.666930
 H         0.743652         0.142202         1.403171
 H        -2.203751         1.728968        -0.549413
 H        -2.530744         0.317247         0.468015
 H        -2.152016         1.235605         2.478075
 H        -1.714253         4.016550         1.004457
 H         1.351635         3.977220         3.348390
 H         0.712557         2.353526         3.493725
 H         1.586385         4.037327         1.011911
 H         2.048880         2.156352         1.355976
 H        -0.230974         2.939570        -0.436101
