19
Iteration:  4222
 O         0.165143         0.092442         0.872140
 C        -0.615102         1.246969         0.855991
 C        -2.030073         1.201017         0.382937
 C        -1.767036         1.789694         1.738468
 C        -1.210762         3.198859         1.551205
 O        -0.501280         3.843156         2.646922
 C         0.756104         3.109831         2.794276
 C         1.268757         2.918757         1.360228
 C        -0.063773         2.633082         0.614232
 H         0.975944         0.313540         1.304527
 H        -2.290146         1.881861        -0.337842
 H        -2.450274         0.141489         0.472154
 H        -2.365422         1.551461         2.544457
 H        -1.813039         4.043470         1.197065
 H         1.361010         3.770728         3.492686
 H         0.597939         2.186283         3.386989
 H         1.587707         4.010921         0.952921
 H         2.212273         2.340281         1.280039
 H        -0.244027         3.071645        -0.363896
