19
Iteration:  2754charge 0 multiplicity 1
 O         0.115584         0.112284         1.048290
 C        -0.598710         1.250386         0.837470
 C        -1.989192         1.219708         0.416033
 C        -1.745130         1.857525         1.729320
 C        -1.163001         3.227119         1.514722
 O        -0.514764         3.747822         2.632466
 C         0.769035         3.045625         2.742401
 C         1.255701         3.024747         1.323649
 C        -0.087499         2.696173         0.507077
 H         0.600683         0.035630         1.844894
 H        -2.481840         1.829093        -0.413347
 H        -2.360822         0.015835         0.440358
 H        -2.180318         1.269914         2.559754
 H        -1.811648         4.040741         1.179217
 H         1.534156         3.423743         3.478901
 H         0.603647         1.947249         3.107610
 H         1.681060         4.113688         1.201361
 H         2.025166         2.214866         1.240247
 H        -0.265806         2.961066        -0.575533
