19
Iteration:  4586charge 0 multiplicity 1
 O         0.118257         0.052832         0.789688
 C        -0.632919         1.203111         0.856887
 C        -2.014500         1.186661         0.409403
 C        -1.761559         1.846432         1.795751
 C        -1.190878         3.164422         1.483588
 O        -0.513469         3.846861         2.651962
 C         0.715399         3.207710         2.870475
 C         1.302463         2.955208         1.460178
 C        -0.036749         2.623354         0.555643
 H         0.997189         0.274754         1.142601
 H        -2.516395         1.625801        -0.529049
 H        -2.428362         0.027821         0.278462
 H        -2.195515         1.550288         2.711847
 H        -1.797191         4.011877         1.056263
 H         1.371002         3.974231         3.525380
 H         0.632084         2.190935         3.310478
 H         1.671498         3.984175         1.197124
 H         2.054333         2.296875         1.367505
 H         0.206988         2.888048        -0.506462
