19
Iteration:  3123charge 0 multiplicity 1
 O         0.119423         0.081325         0.835140
 C        -0.558179         1.268522         0.767644
 C        -2.042039         1.261765         0.514963
 C        -1.692470         1.786467         1.839858
 C        -1.169062         3.165294         1.493248
 O        -0.484049         3.859995         2.554725
 C         0.652075         3.144350         2.815157
 C         1.245951         2.926563         1.428048
 C        -0.050369         2.619860         0.595824
 H         0.869016         0.138971         1.528417
 H        -2.440093         1.861753        -0.345217
 H        -2.359492         0.306237         0.445304
 H        -2.115266         1.279696         2.717924
 H        -1.816126         3.896358         1.050901
 H         1.303748         3.812458         3.459236
 H         0.443511         2.117133         3.255200
 H         1.767997         3.898665         1.094634
 H         1.890161         2.041875         1.365568
 H        -0.088718         2.978621        -0.467713
