19
Iteration:   491
 O         0.155021         0.126550         1.109561
 C        -0.678418         1.289887         0.888105
 C        -2.055658         1.200467         0.359686
 C        -1.699763         1.767713         1.776332
 C        -1.185821         3.310241         1.523272
 O        -0.407541         3.852004         2.550789
 C         0.741372         3.046654         2.768760
 C         1.191621         2.946526         1.354811
 C        -0.064600         2.578845         0.567150
 H         0.864790         0.081505         0.360845
 H        -2.376847         1.709961        -0.590011
 H        -2.445460         0.280366         0.449373
 H        -2.292876         1.249749         2.686685
 H        -1.874743         4.011529         1.013892
 H         1.364418         3.880865         3.304319
 H         0.684765         2.175456         3.442017
 H         1.571400         3.869300         0.898858
 H         1.990588         2.203403         1.266758
 H        -0.176252         2.665757        -0.440642
