19
Iteration:  3470
 O         0.103049         0.057085         0.802244
 C        -0.608161         1.212574         0.768510
 C        -2.045589         1.138564         0.480619
 C        -1.671259         1.894549         1.752131
 C        -1.188007         3.286862         1.492467
 O        -0.567686         3.736397         2.694473
 C         0.757126         3.276335         2.847294
 C         1.235731         2.860983         1.440092
 C        -0.036299         2.661989         0.565776
 H         0.952883         0.436038         1.240111
 H        -2.365274         1.563379        -0.472859
 H        -2.624575         0.234595         0.539623
 H        -2.118404         1.658725         2.679340
 H        -1.911194         4.044623         1.249161
 H         1.469958         3.993984         3.146488
 H         0.717725         2.370653         3.525090
 H         1.783549         3.606706         0.912753
 H         2.039635         2.090304         1.324004
 H         0.411128         2.784385        -0.450371
