19
Iteration:  3760
 O         0.077810         0.009237         0.782064
 C        -0.589250         1.244543         0.807973
 C        -2.063648         1.231635         0.426103
 C        -1.719264         1.810696         1.792957
 C        -1.197149         3.156908         1.518370
 O        -0.539353         3.777798         2.687113
 C         0.737646         3.278340         2.802666
 C         1.332543         2.978975         1.399128
 C         0.021823         2.649813         0.592111
 H         0.438380        -0.084603         1.636170
 H        -2.462577         1.834921        -0.320608
 H        -2.308939         0.170908         0.437276
 H        -2.266496         1.527574         2.723605
 H        -1.976789         3.851348         1.201359
 H         1.334184         4.071985         3.219717
 H         0.733647         2.462522         3.521449
 H         1.846353         3.836790         0.924443
 H         1.965474         2.092708         1.332145
 H         0.059848         2.894531        -0.454713
