19
Iteration:  3085
 O         0.097499         0.082973         0.917120
 C        -0.646228         1.217552         0.734462
 C        -2.017822         1.147735         0.359402
 C        -1.832929         1.838650         1.702526
 C        -1.096999         3.237059         1.543057
 O        -0.494075         3.755912         2.741284
 C         0.826364         3.321776         2.797871
 C         1.221110         2.903488         1.390641
 C        -0.080019         2.600089         0.607397
 H         1.002872         0.254716         1.242715
 H        -2.410193         1.736982        -0.478066
 H        -2.466492         0.102845         0.754939
 H        -2.451043         1.303893         2.495936
 H        -1.700447         4.066377         1.029421
 H         1.463801         4.135600         3.175119
 H         0.938348         2.440078         3.547188
 H         1.670682         3.730287         0.880544
 H         1.955765         2.064615         1.381751
 H         0.106675         3.007869        -0.382065
