19
Iteration:  1165charge 0 multiplicity 1
 O         0.128982        -0.066448         0.874541
 C        -0.651560         1.190592         0.836537
 C        -2.095483         1.274886         0.433401
 C        -1.698750         1.757270         1.730287
 C        -1.205095         3.164535         1.479434
 O        -0.583101         3.835744         2.690784
 C         0.879254         3.451384         2.821681
 C         1.317248         2.951032         1.416256
 C         0.011894         2.578662         0.627722
 H        -0.186738        -0.819318         0.284519
 H        -2.303387         2.076947        -0.294710
 H        -2.548100         0.379391         0.406077
 H        -2.104402         1.323603         2.689486
 H        -1.978063         3.839615         1.038187
 H         1.318471         4.422125         3.075401
 H         0.981218         2.657611         3.647587
 H         1.792180         3.816200         0.840939
 H         1.856312         2.049462         1.395744
 H         0.002954         2.986666        -0.460200
