19
Iteration:   110
 O         0.231151         0.120280         0.967482
 C        -0.644682         1.255192         0.880737
 C        -2.036575         1.119789         0.392055
 C        -1.684541         1.816655         1.810788
 C        -1.112020         3.296192         1.517955
 O        -0.491059         3.943285         2.525424
 C         0.637298         3.186913         2.864264
 C         1.224330         2.801763         1.341237
 C        -0.044049         2.636227         0.591254
 H        -0.235108        -0.700184         0.581314
 H        -2.485740         1.702810        -0.421921
 H        -2.421530         0.164065         0.485061
 H        -2.018923         1.377977         2.706460
 H        -1.734730         4.035116         1.082115
 H         1.420956         3.788900         3.394360
 H         0.496622         2.257988         3.417463
 H         1.650348         3.676150         0.980056
 H         1.711225         1.852378         1.311052
 H        -0.040776         2.952162        -0.394622
