19
Iteration:   890
 O         0.220703         0.136205         0.909844
 C        -0.636850         1.256006         0.749031
 C        -2.067001         1.128386         0.561215
 C        -1.648607         1.878624         1.783391
 C        -1.093885         3.314229         1.475311
 O        -0.491967         3.935489         2.568211
 C         0.656310         3.116904         2.830085
 C         1.220864         2.790267         1.400386
 C        -0.068847         2.603053         0.558694
 H        -0.191967        -0.695344         0.490637
 H        -2.646286         1.582615        -0.211039
 H        -2.495396         0.188735         0.954355
 H        -1.804468         1.350343         2.752296
 H        -1.804767         4.093141         1.109308
 H         1.261524         3.775892         3.447573
 H         0.352702         2.220159         3.362428
 H         1.555277         3.762712         1.019825
 H         1.904880         2.002660         1.365097
 H         0.126317         2.998447        -0.434661
