19
Iteration:  4485charge 0 multiplicity 1
 O         0.143995         0.056521         0.897838
 C        -0.590226         1.274429         0.872476
 C        -2.032838         1.221932         0.345513
 C        -1.751199         1.840203         1.732223
 C        -1.183846         3.233789         1.502430
 O        -0.563581         3.719852         2.698410
 C         0.759665         3.183548         2.800647
 C         1.252562         2.931755         1.359362
 C        -0.033790         2.674546         0.596601
 H         0.844302         0.170233         1.616551
 H        -2.496576         1.722170        -0.654994
 H        -2.375736         0.242475         0.523258
 H        -2.141863         1.344569         2.666815
 H        -1.936342         3.990883         1.177855
 H         1.586287         3.861667         3.277823
 H         0.768792         2.220414         3.297208
 H         1.611711         3.877033         0.901326
 H         2.039707         2.294251         1.392001
 H         0.016642         2.993490        -0.444294
