19
Iteration:  4545
 O         0.086199         0.030341         0.856781
 C        -0.671113         1.275550         0.747609
 C        -2.020192         1.179163         0.370459
 C        -1.681665         1.725138         1.784716
 C        -1.162224         3.236920         1.515218
 O        -0.605943         3.813388         2.716519
 C         0.800509         3.246603         2.840671
 C         1.308485         2.989637         1.420773
 C         0.021735         2.650949         0.516526
 H         0.512242         0.027449         1.716142
 H        -2.385833         1.788554        -0.369448
 H        -2.478152         0.095722         0.318186
 H        -2.125040         1.313693         2.711824
 H        -1.951722         3.896678         1.132756
 H         1.337520         3.861484         3.459697
 H         0.669505         2.349477         3.456868
 H         1.754434         3.810402         0.872725
 H         2.128624         2.156729         1.520916
 H        -0.042580         3.018043        -0.543623
