19
Iteration:  3615charge 0 multiplicity 1
 O         0.147729         0.042444         0.924766
 C        -0.606364         1.212962         0.870097
 C        -2.022539         1.263248         0.300419
 C        -1.750686         1.777433         1.746568
 C        -1.135122         3.223322         1.539393
 O        -0.548813         3.743327         2.690360
 C         0.856281         3.226986         2.741646
 C         1.222066         2.938023         1.334776
 C        -0.126957         2.676369         0.657294
 H         0.650401         0.244815         1.735549
 H        -2.321523         1.993688        -0.422395
 H        -2.597632         0.292897         0.166586
 H        -2.387377         1.299497         2.580520
 H        -1.897552         4.016653         1.238528
 H         1.451304         4.073322         3.223357
 H         0.737299         2.306073         3.308479
 H         1.859967         3.815682         0.964742
 H         2.082417         2.069323         1.330415
 H        -0.148893         2.954877        -0.444785
