19
Iteration:  2740charge 0 multiplicity 1
 O         0.142768         0.087112         1.051367
 C        -0.620915         1.313317         0.849177
 C        -2.087111         1.239586         0.372205
 C        -1.766101         1.791289         1.735382
 C        -1.222992         3.232339         1.525129
 O        -0.504601         3.727057         2.685603
 C         0.741382         3.063243         2.752830
 C         1.276265         2.999660         1.260166
 C         0.048469         2.627897         0.553548
 H         0.862897         0.520158         1.636153
 H        -2.397902         1.912221        -0.445711
 H        -2.539453         0.271460         0.373944
 H        -2.125414         1.560555         2.710402
 H        -1.865789         3.979376         1.190319
 H         1.238934         3.751410         3.310406
 H         0.604514         2.028205         3.264940
 H         1.501504         3.936074         0.849390
 H         2.125393         2.371508         1.032128
 H         0.207171         2.892929        -0.485884
