19
Iteration:   620charge 0 multiplicity 1
 O         0.208929         0.117702         0.941532
 C        -0.651617         1.182317         0.859853
 C        -2.064759         1.297326         0.425325
 C        -1.687660         1.739169         1.819575
 C        -1.226103         3.211430         1.521362
 O        -0.544245         3.863782         2.554476
 C         0.788758         3.246364         2.755738
 C         1.297346         2.863654         1.393640
 C        -0.017263         2.579774         0.623191
 H        -0.290153        -0.668252         0.987542
 H        -2.303651         2.119068        -0.381994
 H        -2.671541         0.447679         0.332349
 H        -2.253846         1.429436         2.743740
 H        -1.960874         3.866937         1.024695
 H         1.432815         3.983008         3.251313
 H         0.608260         2.462800         3.512415
 H         1.795948         3.804521         0.933619
 H         1.974635         2.041918         1.223462
 H         0.028735         2.836153        -0.539737
