19
Iteration:  2856
 O         0.043861        -0.077883         0.802315
 C        -0.645457         1.194002         0.829149
 C        -2.072598         1.130650         0.328106
 C        -1.725171         1.750963         1.730692
 C        -1.167633         3.264195         1.578062
 O        -0.518478         3.893348         2.663982
 C         0.834164         3.334196         2.888857
 C         1.316074         2.960315         1.411477
 C        -0.057127         2.652384         0.625160
 H         0.956493        -0.193124         1.248478
 H        -2.475466         1.599586        -0.649633
 H        -2.458737         0.211326         0.506412
 H        -2.135892         1.336645         2.641377
 H        -1.848023         4.047119         1.083426
 H         1.309439         4.330784         3.208633
 H         0.955469         2.434504         3.511443
 H         1.666822         3.981547         1.039538
 H         2.174524         2.218270         1.472073
 H        -0.092045         3.005788        -0.417148
