19
Iteration:  3542
 O         0.094920        -0.010020         0.811377
 C        -0.583789         1.220556         0.763100
 C        -2.042295         1.215598         0.470731
 C        -1.596325         1.843768         1.799774
 C        -1.186977         3.242183         1.537897
 O        -0.609121         3.842358         2.653043
 C         0.744375         3.149562         2.776214
 C         1.253468         3.000923         1.390873
 C         0.005072         2.604397         0.623126
 H         0.522008        -0.107752         1.729284
 H        -2.414834         1.774047        -0.382674
 H        -2.623088         0.231677         0.460671
 H        -2.173820         1.416083         2.706822
 H        -1.703864         4.076881         1.023023
 H         1.253591         3.940260         3.335100
 H         0.652998         2.174947         3.274624
 H         1.737802         3.891284         0.943296
 H         2.026759         2.280741         1.233578
 H         0.077386         3.142280        -0.294391
