19
Iteration:  3808charge 0 multiplicity 1
 O         0.101864         0.011871         0.855680
 C        -0.576230         1.231577         0.790883
 C        -2.053262         1.234209         0.384510
 C        -1.708810         1.758366         1.754916
 C        -1.216557         3.192986         1.607185
 O        -0.543160         3.841612         2.612447
 C         0.849830         3.194592         2.801359
 C         1.215117         3.020086         1.403327
 C         0.002094         2.634480         0.592616
 H         0.609087         0.010814         1.752763
 H        -2.362763         2.075907        -0.412911
 H        -2.590346         0.253512         0.407336
 H        -2.245517         1.336209         2.692985
 H        -1.989441         3.927666         1.232457
 H         1.521841         3.737762         3.547027
 H         0.688526         2.196352         3.290041
 H         1.531789         3.844965         0.756244
 H         1.971178         2.224198         1.428933
 H         0.032648         3.004815        -0.403613
