19
Iteration:  1816
 O         0.178053         0.074087         1.055692
 C        -0.587658         1.218411         0.827518
 C        -2.105644         1.223367         0.397866
 C        -1.665055         1.798110         1.754476
 C        -1.217559         3.203458         1.557785
 O        -0.456398         3.844371         2.553363
 C         0.707843         3.115533         2.909778
 C         1.267411         3.004849         1.314739
 C        -0.060895         2.676883         0.521094
 H        -0.060708        -0.472577         0.342874
 H        -2.239757         1.797445        -0.537809
 H        -2.576209         0.252119         0.452944
 H        -2.033585         1.399433         2.648247
 H        -1.967306         3.918742         1.115021
 H         1.353294         3.577410         3.672423
 H         0.544055         2.070107         3.352584
 H         1.457457         4.014414         1.178676
 H         2.229234         2.507220         1.024550
 H        -0.055752         2.822588        -0.581098
