19
Iteration:  2298charge 0 multiplicity 1
 O         0.093428         0.084769         0.963108
 C        -0.575165         1.222708         0.696454
 C        -2.025572         1.127513         0.411018
 C        -1.710140         1.752221         1.713054
 C        -1.185329         3.223000         1.542998
 O        -0.544404         3.792339         2.719920
 C         0.797184         3.420999         2.729289
 C         1.258131         2.829961         1.446685
 C        -0.029824         2.654561         0.633354
 H        -0.200918        -0.481219         0.180020
 H        -2.621771         1.788667        -0.394894
 H        -2.511987         0.178691         0.438422
 H        -1.970921         1.335275         2.747479
 H        -1.905485         3.898479         1.079617
 H         1.446699         4.335015         2.999186
 H         0.995993         2.752490         3.622957
 H         1.956811         3.557918         0.882515
 H         1.899661         1.966541         1.525208
 H         0.028791         3.326346        -0.270693
