19
Iteration:   534
 O         0.123028         0.073035         1.068173
 C        -0.622684         1.239911         0.886467
 C        -2.113350         1.232949         0.429809
 C        -1.682563         1.818427         1.717019
 C        -1.176257         3.228783         1.477393
 O        -0.580442         3.779830         2.636337
 C         0.773808         3.245782         2.725545
 C         1.306840         2.892342         1.335258
 C         0.000820         2.642233         0.574286
 H         0.428337        -0.329164         0.215536
 H        -2.606228         1.787900        -0.419178
 H        -2.516872         0.323883         0.648054
 H        -1.906463         1.438548         2.800066
 H        -1.909904         3.962880         1.102939
 H         1.496174         3.887401         3.308273
 H         0.704895         2.350100         3.372359
 H         1.866171         3.808204         0.953795
 H         1.960919         2.029877         1.227800
 H         0.210502         2.955673        -0.418223
