19
Iteration:   164charge 0 multiplicity 1
 O         0.207167         0.248654         1.081360
 C        -0.614337         1.282484         0.857882
 C        -2.081161         1.145286         0.449004
 C        -1.707938         1.910781         1.728250
 C        -1.187318         3.250384         1.386659
 O        -0.517048         3.730293         2.658888
 C         0.746827         3.049362         2.806663
 C         1.218795         2.935699         1.323106
 C         0.006707         2.573789         0.469465
 H        -0.254798        -0.554194         1.515668
 H        -2.418930         1.625367        -0.454351
 H        -2.557335         0.207031         0.561524
 H        -2.193818         1.709104         2.690256
 H        -1.726735         4.097136         1.029999
 H         1.485071         3.702952         3.391654
 H         0.694906         2.090258         3.372479
 H         1.567744         3.916787         0.937494
 H         2.070833         2.287737         1.245344
 H        -0.029602         2.950668        -0.579420
