19
Iteration:  2114charge 0 multiplicity 1
 O         0.125779         0.013038         1.072881
 C        -0.666192         1.219498         0.814444
 C        -2.105798         1.279608         0.388318
 C        -1.686377         1.762741         1.797622
 C        -1.223792         3.184956         1.589759
 O        -0.509486         3.761825         2.610986
 C         0.810721         3.222960         2.710830
 C         1.302459         3.034474         1.375158
 C        -0.037458         2.636416         0.532763
 H         0.634256        -0.260547         0.271329
 H        -2.359721         2.019798        -0.376420
 H        -2.575286         0.274000         0.131113
 H        -2.065708         1.293535         2.657572
 H        -1.985706         3.866408         1.077703
 H         1.271862         4.004296         3.369609
 H         0.779404         2.371548         3.369409
 H         1.738412         3.984379         0.843426
 H         2.143246         2.393921         1.524090
 H         0.085582         3.026780        -0.500831
