19
Iteration:   179
 O         0.243193         0.115132         1.149247
 C        -0.656579         1.207778         0.807859
 C        -2.053382         1.187912         0.377717
 C        -1.811430         1.872398         1.665462
 C        -1.123559         3.308644         1.514664
 O        -0.522316         3.730696         2.643764
 C         0.779621         3.143526         2.682619
 C         1.306391         2.983083         1.303333
 C        -0.077194         2.674907         0.616278
 H        -0.380264        -0.557990         1.417957
 H        -2.545812         1.752701        -0.449523
 H        -2.448517         0.112720         0.591981
 H        -2.130203         1.477592         2.692698
 H        -1.897605         4.022111         1.102442
 H         1.299735         3.693101         3.432706
 H         0.712375         2.049390         2.963529
 H         1.705907         4.019563         0.998120
 H         1.864148         1.984635         1.151304
 H         0.180332         2.845841        -0.395383
