19
Iteration:  2524charge 0 multiplicity 1
 O         0.150537         0.045002         1.104452
 C        -0.669952         1.155297         0.928382
 C        -2.056273         1.205775         0.320083
 C        -1.765817         1.866841         1.705405
 C        -1.168968         3.182594         1.547819
 O        -0.469800         3.770874         2.683453
 C         0.828403         3.218185         2.744299
 C         1.258012         3.106706         1.282354
 C        -0.038412         2.575658         0.558538
 H         0.153738        -0.358824         0.243581
 H        -2.388518         1.768949        -0.574248
 H        -2.584691         0.326782         0.462828
 H        -2.167501         1.468666         2.686063
 H        -1.926884         4.005162         1.264094
 H         1.503895         3.820546         3.351638
 H         0.879742         2.169572         3.243751
 H         1.425830         4.107650         0.879631
 H         2.080263         2.390440         1.049817
 H        -0.254200         2.976825        -0.437671
