19
Iteration:  1342charge 0 multiplicity 1
 O         0.198983         0.064055         1.155370
 C        -0.698006         1.222429         0.877930
 C        -2.062569         1.324264         0.308460
 C        -1.742722         1.749799         1.711853
 C        -1.151859         3.156134         1.566660
 O        -0.541633         3.771776         2.710212
 C         0.833264         3.262319         2.703194
 C         1.216134         2.997150         1.267874
 C        -0.041742         2.605857         0.556819
 H         0.554594        -0.327854         0.264726
 H        -2.248537         2.109788        -0.333602
 H        -2.695727         0.407947         0.374827
 H        -2.134973         1.331845         2.568809
 H        -1.913522         3.931436         1.193423
 H         1.448510         3.977839         3.259576
 H         0.744487         2.194167         3.207173
 H         1.899675         3.627711         0.650805
 H         1.905030         2.070959         1.387851
 H        -0.055590         2.953000        -0.515916
