19
Iteration:  4020
 O         0.133307         0.083355         0.829751
 C        -0.661183         1.220314         0.752129
 C        -2.098000         1.213685         0.401995
 C        -1.692260         1.697872         1.764744
 C        -1.206009         3.201031         1.581075
 O        -0.512026         3.911402         2.619701
 C         0.731322         3.169072         2.788870
 C         1.324380         2.954622         1.416830
 C        -0.020410         2.655075         0.673374
 H         0.650923         0.040956         1.650940
 H        -2.490251         2.011997        -0.293802
 H        -2.380714         0.028544         0.300013
 H        -1.942315         1.070886         2.654294
 H        -1.796013         3.922092         0.988114
 H         1.287784         3.928098         3.288942
 H         0.709976         2.300800         3.441722
 H         1.860465         3.815295         1.022600
 H         1.958010         2.015562         1.300741
 H        -0.083309         3.077999        -0.292796
