19
Iteration:  4646
 O         0.123840         0.111524         0.864123
 C        -0.637204         1.249287         0.744461
 C        -2.046933         1.195929         0.406257
 C        -1.631728         1.786419         1.771222
 C        -1.164661         3.226908         1.482839
 O        -0.614502         3.785856         2.688262
 C         0.754896         3.201002         2.811998
 C         1.287507         2.897551         1.414407
 C        -0.019757         2.701018         0.596383
 H         0.361789        -0.088971         1.835744
 H        -2.493008         1.861877        -0.318980
 H        -2.318666         0.255784         0.513007
 H        -1.958195         1.157644         2.640887
 H        -1.834877         3.950163         1.018347
 H         1.381797         3.901920         3.313656
 H         0.519296         2.274434         3.388930
 H         1.755760         3.777049         0.969822
 H         2.052058         2.016511         1.374899
 H         0.127936         2.906473        -0.504755
