19
Iteration:  2663charge 0 multiplicity 1
 O         0.135932         0.012755         0.826840
 C        -0.606017         1.208606         0.765005
 C        -2.129734         1.294482         0.466545
 C        -1.678535         1.730507         1.742236
 C        -1.171651         3.135958         1.540466
 O        -0.559799         3.862102         2.626527
 C         0.804427         3.307595         2.782596
 C         1.267461         2.925544         1.436845
 C        -0.001154         2.585413         0.578660
 H         0.253035        -0.187116         1.774173
 H        -2.458565         2.059923        -0.309863
 H        -2.565958         0.376984         0.342456
 H        -1.884816         1.593329         2.814717
 H        -1.948666         3.712941         1.196586
 H         1.320214         4.059452         3.269911
 H         0.746131         2.509103         3.652951
 H         1.622159         3.835298         1.064681
 H         1.997228         2.123687         1.337590
 H         0.135921         3.121036        -0.350215
