19
Iteration:  3803charge 0 multiplicity 1
 O         0.101476         0.011384         0.852037
 C        -0.595421         1.214710         0.762391
 C        -2.059120         1.248684         0.386194
 C        -1.697187         1.737914         1.730466
 C        -1.203387         3.166979         1.650701
 O        -0.531016         3.867861         2.621775
 C         0.815929         3.223816         2.835565
 C         1.202533         3.006776         1.372119
 C         0.002284         2.605683         0.585130
 H         0.440478        -0.108336         1.715685
 H        -2.313596         1.916872        -0.313320
 H        -2.497918         0.254106         0.445565
 H        -2.283829         1.624715         2.658347
 H        -1.926165         3.894258         1.320085
 H         1.474351         3.810331         3.413964
 H         0.781946         2.177741         3.150426
 H         1.596555         3.991227         0.979167
 H         2.084373         2.336266         1.445371
 H         0.178913         3.041731        -0.468535
