19
Iteration:  2493
 O         0.158903         0.094329         1.068514
 C        -0.643432         1.240721         0.931879
 C        -2.023209         1.204006         0.363797
 C        -1.795542         1.886818         1.714266
 C        -1.169580         3.222278         1.480904
 O        -0.550540         3.590738         2.723903
 C         0.851203         3.235907         2.692877
 C         1.295326         3.077300         1.249495
 C        -0.016944         2.605977         0.583675
 H        -0.622497        -0.538948         0.974736
 H        -2.472132         1.650196        -0.501871
 H        -2.380118         0.251067         0.475741
 H        -2.022621         1.665076         2.751760
 H        -1.783389         4.141357         1.281582
 H         1.367748         4.147864         3.267210
 H         0.933772         2.199124         3.316918
 H         1.547953         4.037195         0.735035
 H         2.115851         2.386239         1.122808
 H        -0.134718         2.883189        -0.492055
