19
Iteration:  1569charge 0 multiplicity 1
 O         0.074850        -0.018731         1.118960
 C        -0.587150         1.310795         0.914080
 C        -2.027879         1.278677         0.373266
 C        -1.647457         1.840001         1.743526
 C        -1.161620         3.221349         1.487695
 O        -0.586328         3.680839         2.666678
 C         0.789182         3.185109         2.744105
 C         1.240674         3.065403         1.266322
 C         0.003412         2.628037         0.568751
 H         0.437702        -0.298013         0.278064
 H        -2.488200         1.953419        -0.394174
 H        -2.478426         0.225705         0.438618
 H        -2.305029         1.505455         2.580927
 H        -1.912492         3.841143         1.049338
 H         1.522675         3.948810         3.280680
 H         0.913121         2.140928         3.321827
 H         1.462380         4.047019         0.802539
 H         1.980587         2.341557         1.225171
 H        -0.006913         2.809132        -0.506960
