19
Iteration:  4825charge 0 multiplicity 1
 O         0.151921        -0.007241         0.890324
 C        -0.593665         1.267945         0.782898
 C        -2.088359         1.234660         0.348460
 C        -1.693204         1.778552         1.675978
 C        -1.181081         3.166670         1.563418
 O        -0.526283         3.868076         2.672293
 C         0.746285         3.178159         2.854654
 C         1.245418         2.952589         1.439413
 C        -0.020422         2.674534         0.539037
 H         0.688529         0.211165         1.720998
 H        -2.501782         1.928369        -0.411042
 H        -2.422373         0.281082         0.301609
 H        -1.984211         1.610078         2.668651
 H        -1.988206         3.835030         1.330763
 H         1.458251         3.718874         3.532054
 H         0.618022         2.198619         3.364819
 H         1.661806         3.953669         1.113641
 H         1.817984         1.991169         1.324787
 H        -0.085109         2.924577        -0.594600
