19
Iteration:   714
 O         0.127165         0.097487         1.123594
 C        -0.609463         1.223367         0.811764
 C        -2.056963         1.271758         0.432980
 C        -1.667339         1.798457         1.761160
 C        -1.125161         3.199223         1.527322
 O        -0.476890         3.877361         2.596598
 C         0.724633         3.161597         2.781053
 C         1.154197         2.887227         1.292995
 C        -0.063829         2.616382         0.524532
 H         0.601452        -0.371120         0.370126
 H        -2.378119         2.047978        -0.278703
 H        -2.531993         0.347173         0.286391
 H        -2.039615         1.134266         2.675007
 H        -1.899138         3.987612         1.293543
 H         1.441324         3.859980         3.231523
 H         0.757927         2.307914         3.526447
 H         1.701113         3.761308         0.928429
 H         1.882205         2.080256         1.162469
 H         0.038502         2.820708        -0.486240
