19
Iteration:   398charge 0 multiplicity 1
 O         0.272499         0.031714         1.007024
 C        -0.653359         1.166699         0.900537
 C        -2.029095         1.290516         0.364884
 C        -1.761380         1.869603         1.803744
 C        -1.217487         3.172867         1.504384
 O        -0.503550         3.916145         2.653601
 C         0.765630         3.217725         2.761612
 C         1.225376         2.953466         1.304897
 C        -0.053106         2.528842         0.592585
 H        -0.310598        -0.672463         0.803859
 H        -2.129249         1.946289        -0.547800
 H        -2.740690         0.445406         0.175219
 H        -2.201238         1.460322         2.586478
 H        -1.867645         3.940114         1.094026
 H         1.423558         3.860864         3.277887
 H         0.709012         2.246071         3.390221
 H         1.911033         3.722218         0.787169
 H         1.913697         2.047413         1.363763
 H        -0.070704         2.911237        -0.477877
