19
Iteration:  3782
 O         0.090182        -0.023908         0.788465
 C        -0.630405         1.221861         0.842996
 C        -2.065334         1.200854         0.357760
 C        -1.675827         1.758647         1.781204
 C        -1.120768         3.242653         1.502552
 O        -0.573442         3.846423         2.671895
 C         0.818922         3.249456         2.864745
 C         1.262841         3.037280         1.382260
 C        -0.027844         2.624153         0.626286
 H         0.204087        -0.403400         1.745993
 H        -2.352153         1.902803        -0.317594
 H        -2.610190         0.236793         0.478644
 H        -1.956465         1.097714         2.675241
 H        -1.760049         3.983598         1.027248
 H         1.475728         3.884096         3.373892
 H         0.736205         2.300847         3.441954
 H         1.521216         3.926663         0.779374
 H         2.067051         2.308352         1.315602
 H        -0.080988         3.048741        -0.379966
