19
Iteration:  1628charge 0 multiplicity 1
 O         0.241110         0.178961         1.089175
 C        -0.646732         1.283400         0.827385
 C        -2.017821         1.166219         0.391092
 C        -1.753232         1.824023         1.747646
 C        -1.178157         3.227738         1.521045
 O        -0.514021         3.869287         2.623256
 C         0.786208         3.141054         2.771704
 C         1.177837         2.817096         1.325202
 C        -0.079046         2.652262         0.543846
 H         0.385051        -0.301171         0.242126
 H        -2.258476         1.896390        -0.385967
 H        -2.592351         0.251458         0.601962
 H        -1.879325         1.187852         2.598393
 H        -1.977678         4.006118         1.281741
 H         1.358285         3.790679         3.393196
 H         0.527352         2.156497         3.404361
 H         1.820912         3.530017         0.836711
 H         1.882086         1.845271         1.407720
 H        -0.112890         2.998586        -0.501766
