19
Iteration:  4715
 O         0.063069        -0.029256         0.961962
 C        -0.570207         1.196678         0.854679
 C        -2.001089         1.328116         0.278900
 C        -1.759267         1.728992         1.729854
 C        -1.212243         3.191659         1.498870
 O        -0.523720         3.792869         2.710460
 C         0.769593         3.180402         2.765801
 C         1.291079         3.061361         1.398962
 C        -0.049937         2.656283         0.614665
 H         0.957355         0.344251         1.148472
 H        -2.188668         2.004598        -0.529400
 H        -2.421270         0.264201         0.454593
 H        -2.181718         1.321739         2.593934
 H        -1.955956         3.965865         1.220040
 H         1.302225         3.995210         3.456007
 H         0.780640         2.166787         3.241698
 H         1.849402         4.018023         0.970157
 H         1.963145         2.082398         1.246831
 H        -0.103594         2.955799        -0.453354
