19
Iteration:   629
 O         0.231840         0.059315         0.969226
 C        -0.656948         1.249378         0.775036
 C        -2.100227         1.254433         0.471556
 C        -1.704166         1.837418         1.824389
 C        -1.146779         3.185855         1.455502
 O        -0.557391         3.896946         2.629954
 C         0.727097         3.250146         2.777454
 C         1.315859         2.840811         1.352667
 C        -0.017001         2.600931         0.586370
 H        -0.170599        -0.773141         0.964088
 H        -2.577116         2.078849        -0.279025
 H        -2.564473         0.271793         0.380897
 H        -2.167050         1.212489         2.713081
 H        -2.020246         3.777680         1.083155
 H         1.312981         3.942718         3.325321
 H         0.713294         2.264295         3.347879
 H         1.867995         3.805886         0.983308
 H         1.986813         1.978619         1.353292
 H         0.072396         2.985497        -0.566820
