19
Iteration:  1756
 O         0.150889         0.085967         1.008746
 C        -0.638593         1.226781         0.759581
 C        -2.105190         1.121301         0.375865
 C        -1.697997         1.748621         1.698919
 C        -1.193725         3.213491         1.549285
 O        -0.467614         3.851388         2.635224
 C         0.822700         3.334779         2.785969
 C         1.229952         2.829917         1.426015
 C        -0.072322         2.711940         0.652767
 H         0.639595        -0.150404         0.183022
 H        -2.639470         1.754764        -0.402992
 H        -2.522619         0.033571         0.303574
 H        -2.218658         1.408722         2.628555
 H        -1.738904         4.037852         1.133704
 H         1.468808         4.102866         3.257908
 H         0.656213         2.554115         3.468643
 H         1.871105         3.561688         0.764560
 H         1.737189         1.874602         1.575212
 H        -0.069369         3.050011        -0.382633
