19
Iteration:   394charge 0 multiplicity 1
 O         0.240796         0.055268         1.002078
 C        -0.635565         1.165312         0.892185
 C        -2.016242         1.308987         0.383821
 C        -1.715868         1.839932         1.781783
 C        -1.189271         3.191382         1.500847
 O        -0.548528         3.907587         2.630627
 C         0.801937         3.197569         2.756711
 C         1.202435         2.910796         1.302673
 C        -0.063176         2.551885         0.606045
 H        -0.287006        -0.809597         0.821402
 H        -2.197518         1.970334        -0.510599
 H        -2.587807         0.442732         0.314327
 H        -2.327782         1.436795         2.750364
 H        -1.817456         3.975582         1.040820
 H         1.525841         3.926661         3.297339
 H         0.636139         2.399356         3.477265
 H         1.734843         3.779188         1.014201
 H         1.923086         2.085584         1.284664
 H        -0.030986         2.866233        -0.491458
