19
Iteration:  2804charge 0 multiplicity 1
 O         0.193881         0.187912         0.953615
 C        -0.663706         1.193231         0.816054
 C        -2.119577         1.198865         0.371853
 C        -1.718819         1.824016         1.779530
 C        -1.152365         3.162807         1.457360
 O        -0.495084         3.726589         2.637782
 C         0.765305         3.192988         2.812629
 C         1.240479         2.939717         1.328911
 C        -0.025151         2.669569         0.627289
 H         0.516410        -0.024741         1.882650
 H        -2.376938         1.840011        -0.425049
 H        -2.665662         0.348054         0.410277
 H        -2.207594         1.551559         2.709631
 H        -1.839393         3.977071         1.059797
 H         1.344509         3.923801         3.362837
 H         0.773523         2.199232         3.246941
 H         1.684338         3.795656         0.938655
 H         1.824847         2.027431         1.209710
 H         0.105827         3.019649        -0.378692
