19
Iteration:  3258charge 0 multiplicity 1
 O         0.010025        -0.008150         0.850784
 C        -0.618141         1.235919         0.841916
 C        -2.010917         1.201258         0.405666
 C        -1.711973         1.836057         1.669545
 C        -1.141835         3.147595         1.524669
 O        -0.575365         3.723274         2.687532
 C         0.781829         3.314205         2.812333
 C         1.339170         3.005408         1.372461
 C        -0.010486         2.655062         0.646375
 H         0.537002        -0.075229         1.705060
 H        -2.491507         1.822773        -0.364344
 H        -2.383829         0.127019         0.471054
 H        -2.235663         1.430694         2.459322
 H        -1.906526         3.896092         1.248491
 H         1.369518         4.226534         3.162923
 H         0.995780         2.478683         3.595499
 H         1.739730         3.982083         0.954148
 H         2.216982         2.366452         1.159109
 H        -0.081380         3.013675        -0.477355
