19
Iteration:  1869
 O         0.229555         0.160102         1.037113
 C        -0.617256         1.252411         0.802489
 C        -2.087046         1.203988         0.403546
 C        -1.816823         1.871539         1.737273
 C        -1.196044         3.240799         1.489209
 O        -0.525252         3.631444         2.662971
 C         0.827243         3.252203         2.779422
 C         1.211266         2.926429         1.365213
 C        -0.015332         2.634818         0.580199
 H         0.030303        -0.517211         0.429319
 H        -2.531222         1.833901        -0.477378
 H        -2.579555         0.190553         0.644893
 H        -2.273021         1.581655         2.635316
 H        -1.776545         4.060739         1.014949
 H         1.531703         3.998618         2.982970
 H         0.975745         2.395838         3.461047
 H         1.692575         3.827721         1.041516
 H         2.038463         2.093364         1.466589
 H         0.204218         2.749207        -0.475454
