19
Iteration:  2786
 O         0.213553         0.085838         0.985501
 C        -0.648780         1.266714         0.808254
 C        -2.047097         1.160385         0.405549
 C        -1.760379         1.869182         1.666461
 C        -1.189213         3.305525         1.577271
 O        -0.541291         3.822942         2.711137
 C         0.780339         3.084781         2.780734
 C         1.285656         2.939062         1.312478
 C        -0.049715         2.636631         0.491755
 H         0.228787        -0.113326         1.980919
 H        -2.613313         1.723941        -0.375683
 H        -2.284091        -0.030267         0.552765
 H        -2.130028         1.265196         2.521550
 H        -1.809425         4.109292         1.303530
 H         1.535097         3.669048         3.290483
 H         0.468739         2.086861         3.226485
 H         1.650294         3.977248         1.027806
 H         2.149752         2.264334         1.228672
 H        -0.146768         2.829960        -0.609485
