19
Iteration:  3337charge 0 multiplicity 1
 O         0.230151         0.112503         0.946008
 C        -0.684628         1.288685         0.816726
 C        -2.068732         1.138160         0.373450
 C        -1.707363         1.916294         1.734339
 C        -1.154088         3.247227         1.556349
 O        -0.543736         3.804378         2.714774
 C         0.694341         3.097655         2.809421
 C         1.242157         2.844038         1.274525
 C        -0.017281         2.674697         0.592753
 H         1.081667         0.471094         1.360262
 H        -2.451833         1.580134        -0.560474
 H        -2.356530         0.156806         0.705616
 H        -2.346987         1.452588         2.524180
 H        -1.673572         4.125536         1.081507
 H         1.308589         3.741398         3.366418
 H         0.472688         2.056561         3.300075
 H         1.648460         3.670403         0.768439
 H         1.960013         1.980204         1.249007
 H        -0.026827         3.080615        -0.449921
