19
Iteration:  2566
 O         0.126016         0.108127         1.031323
 C        -0.592402         1.300496         0.804948
 C        -2.139700         1.177466         0.466963
 C        -1.590567         1.776141         1.762053
 C        -1.192592         3.217231         1.542742
 O        -0.491145         3.790534         2.570822
 C         0.736687         3.209338         2.823449
 C         1.249571         2.851229         1.301973
 C        -0.082974         2.692245         0.553912
 H         0.827306         0.139800         0.370908
 H        -2.538026         1.861289        -0.387243
 H        -2.533509         0.167814         0.471483
 H        -1.860202         1.431722         2.813042
 H        -1.945209         3.936334         1.210657
 H         1.213566         3.913490         3.361253
 H         0.637283         2.390242         3.432498
 H         1.847333         3.662640         0.899897
 H         1.888425         1.926272         1.430297
 H        -0.099488         2.967737        -0.500399
