19
Iteration:  2254
 O         0.213270         0.106345         0.941509
 C        -0.635440         1.218678         0.854996
 C        -2.098381         1.229203         0.373146
 C        -1.782504         1.844655         1.786172
 C        -1.147708         3.167115         1.547258
 O        -0.552054         3.781034         2.624449
 C         0.799994         3.263440         2.758562
 C         1.271435         2.953380         1.376769
 C        -0.026792         2.594061         0.661462
 H         0.007735        -0.790029         0.520193
 H        -2.579997         1.853167        -0.506475
 H        -2.396636         0.170541         0.291447
 H        -2.406684         1.568999         2.651602
 H        -1.819940         3.843217         1.046096
 H         1.386899         3.983091         3.265394
 H         0.987399         2.435771         3.500753
 H         1.668668         3.930020         0.900218
 H         2.068553         2.250994         1.192212
 H         0.191703         2.777903        -0.403915
