19
Iteration:  3053
 O         0.077727         0.071848         0.934039
 C        -0.648796         1.213426         0.846970
 C        -1.994800         1.281429         0.354819
 C        -1.765780         1.759876         1.764572
 C        -1.146305         3.216073         1.511350
 O        -0.587606         3.651873         2.732007
 C         0.832228         3.323757         2.728563
 C         1.366898         2.999334         1.296223
 C        -0.066383         2.622199         0.638916
 H         0.391672        -0.087471         1.866030
 H        -2.316592         1.928596        -0.457869
 H        -2.600734         0.256441         0.395244
 H        -2.587499         1.396515         2.455063
 H        -1.721765         3.959305         1.054140
 H         1.412885         4.134111         3.163304
 H         0.989961         2.348693         3.296931
 H         1.746464         3.852897         0.790134
 H         2.100150         2.161017         1.271639
 H         0.067992         2.936837        -0.380620
