19
Iteration:  3344
 O         0.218771         0.105978         0.939625
 C        -0.689277         1.229211         0.816582
 C        -2.095911         1.111348         0.395494
 C        -1.722444         1.919306         1.694789
 C        -1.160558         3.352290         1.549642
 O        -0.542217         3.756886         2.693069
 C         0.737379         3.108919         2.797619
 C         1.235212         2.886137         1.352825
 C        -0.012795         2.667588         0.566117
 H         1.085871         0.497272         1.265871
 H        -2.485377         1.463520        -0.614167
 H        -2.532642         0.179748         0.686897
 H        -2.188731         1.449087         2.476206
 H        -1.845390         4.083284         1.258395
 H         1.349621         3.712460         3.550229
 H         0.795286         2.202368         3.396095
 H         1.740229         3.846223         0.884037
 H         1.872425         1.994633         1.213023
 H         0.133463         2.933363        -0.510377
