19
Iteration:  2502
 O         0.131944         0.077383         1.067169
 C        -0.587379         1.245868         0.906156
 C        -2.045836         1.188882         0.435445
 C        -1.787291         1.887168         1.704350
 C        -1.188722         3.271562         1.478929
 O        -0.530270         3.596086         2.703862
 C         0.841187         3.243673         2.711172
 C         1.267688         3.077373         1.242566
 C        -0.003284         2.599051         0.624768
 H        -0.302050        -0.798581         0.816086
 H        -2.385594         1.882348        -0.345743
 H        -2.325153         0.202719         0.301954
 H        -2.450624         1.563154         2.598931
 H        -1.818815         4.098613         0.959656
 H         1.453207         3.973199         3.260438
 H         1.043230         2.214218         3.285875
 H         1.412960         4.086347         0.848800
 H         2.115311         2.400049         0.951980
 H        -0.069052         2.900955        -0.437317
