19
Iteration:   774charge 0 multiplicity 1
 O         0.110516         0.024848         1.078248
 C        -0.679570         1.139122         0.927435
 C        -2.019797         1.268874         0.345858
 C        -1.777712         1.933492         1.694584
 C        -1.102763         3.223824         1.496767
 O        -0.535010         3.632496         2.667857
 C         0.909253         3.348225         2.767855
 C         1.255454         3.028037         1.301670
 C        -0.064429         2.562498         0.651523
 H        -0.240790        -0.585975         0.347641
 H        -2.234386         1.888676        -0.532673
 H        -2.591534         0.227516         0.363295
 H        -2.177274         1.735275         2.579044
 H        -1.862592         3.886912         1.117161
 H         1.308295         4.305795         2.982753
 H         1.076659         2.534115         3.441332
 H         1.382560         3.951402         0.669259
 H         2.024222         2.240718         1.155504
 H         0.116787         2.707792        -0.467782
