19
Iteration:  1204
 O         0.012214        -0.009848         0.938190
 C        -0.606533         1.184835         0.752023
 C        -2.063649         1.204704         0.384500
 C        -1.667052         1.775246         1.797150
 C        -1.209548         3.219130         1.492755
 O        -0.584739         3.850387         2.680587
 C         0.902684         3.395910         2.861094
 C         1.271881         2.911518         1.385138
 C        -0.025624         2.594110         0.605771
 H         0.500493        -0.011763         0.150235
 H        -2.514502         1.716341        -0.463154
 H        -2.525111         0.075734         0.456586
 H        -1.877952         1.279986         2.786180
 H        -1.929630         3.920184         1.059799
 H         1.473666         4.332218         3.117456
 H         0.999592         2.534292         3.543452
 H         1.735914         3.700547         0.835938
 H         2.089985         2.116740         1.457207
 H         0.225439         2.925092        -0.372105
