19
Iteration:  1536
 O         0.140450         0.041547         1.105120
 C        -0.614364         1.198498         0.784799
 C        -2.051328         1.202692         0.231673
 C        -1.738822         1.790967         1.781242
 C        -1.205423         3.217968         1.654437
 O        -0.489514         3.851909         2.660388
 C         0.840718         3.234169         2.756780
 C         1.265888         3.050506         1.313334
 C        -0.052845         2.581899         0.591534
 H        -0.328139        -0.664758         0.507661
 H        -2.515827         1.863222        -0.545637
 H        -2.380261         0.052605         0.377734
 H        -2.492638         1.303027         2.467488
 H        -1.869477         3.873713         1.143439
 H         1.618842         3.921388         3.377748
 H         0.749748         2.124675         3.275171
 H         1.465528         4.067558         0.855550
 H         2.163765         2.496142         1.204803
 H         0.105994         2.816134        -0.459715
