19
Iteration:  3016charge 0 multiplicity 1
 O         0.041041        -0.029130         0.979642
 C        -0.634027         1.162000         0.780002
 C        -2.033659         1.151124         0.296781
 C        -1.699655         1.714593         1.753114
 C        -1.159511         3.242274         1.531066
 O        -0.498445         3.803720         2.696695
 C         0.890864         3.197311         2.776555
 C         1.263115         3.100987         1.330402
 C        -0.020581         2.727353         0.630842
 H         0.071270         0.012222         1.989134
 H        -2.329187         2.020505        -0.504619
 H        -2.675966         0.339343         0.399851
 H        -2.386796         1.202082         2.361738
 H        -1.905359         4.110568         1.095553
 H         1.399227         3.868749         3.512207
 H         0.729916         2.229553         3.317182
 H         1.485718         4.194672         0.996394
 H         2.143055         2.520209         1.086356
 H        -0.233607         3.016896        -0.454928
