19
Iteration:    53
 O        -0.065175        -0.066637         0.914714
 C        -0.618999         1.185583         0.814493
 C        -2.021457         1.181387         0.377058
 C        -1.679505         1.742638         1.774336
 C        -1.162982         3.197068         1.517016
 O        -0.569402         3.893170         2.611376
 C         0.849676         3.437807         2.827331
 C         1.248126         2.982899         1.456739
 C         0.059078         2.539161         0.616775
 H         0.655478        -0.179413         0.351612
 H        -2.291912         1.887753        -0.357315
 H        -2.531640         0.171217         0.372875
 H        -2.068337         1.372350         2.767389
 H        -1.887810         3.861686         1.050149
 H         1.546393         4.336944         3.074567
 H         0.922104         2.608213         3.553974
 H         1.739075         3.761704         0.960706
 H         2.039740         2.268366         1.430013
 H         0.184451         2.948196        -0.416091
