19
Iteration:  1570
 O         0.073569        -0.013414         1.117083
 C        -0.597813         1.310421         0.903376
 C        -2.021532         1.272539         0.382571
 C        -1.653309         1.844167         1.749110
 C        -1.165703         3.224849         1.483512
 O        -0.586100         3.679988         2.670100
 C         0.788369         3.181336         2.742061
 C         1.239831         3.067134         1.266752
 C         0.014270         2.622229         0.563932
 H         0.484096        -0.325228         0.272412
 H        -2.495512         1.950556        -0.397443
 H        -2.442707         0.241301         0.419580
 H        -2.306618         1.520262         2.595485
 H        -1.935805         3.869881         1.089132
 H         1.494974         3.963937         3.258635
 H         0.908170         2.141278         3.334917
 H         1.474593         4.023044         0.809504
 H         2.035683         2.332209         1.241916
 H        -0.014580         2.806799        -0.496010
