19
Iteration:   387charge 0 multiplicity 1
 O         0.184990         0.085485         0.992584
 C        -0.605834         1.182053         0.879492
 C        -2.008796         1.296798         0.400668
 C        -1.688594         1.781443         1.778114
 C        -1.135199         3.251862         1.515481
 O        -0.579581         3.873852         2.586107
 C         0.820201         3.210112         2.771201
 C         1.194549         2.852521         1.345847
 C        -0.066104         2.592684         0.610846
 H        -0.207962        -0.813663         0.865912
 H        -2.327306         2.024561        -0.397660
 H        -2.517050         0.331812         0.503036
 H        -2.246283         1.562263         2.577873
 H        -1.831986         3.915605         0.987966
 H         1.481986         3.928348         3.178412
 H         0.593533         2.393132         3.514212
 H         1.497523         3.904999         1.044710
 H         2.004927         2.091361         1.152936
 H         0.001606         2.771106        -0.496178
