19
Iteration:   184
 O         0.230865         0.079111         1.157559
 C        -0.623039         1.222712         0.859488
 C        -2.079159         1.180101         0.338391
 C        -1.838455         1.840198         1.658482
 C        -1.135145         3.286222         1.554424
 O        -0.525521         3.763583         2.647593
 C         0.788389         3.152864         2.666790
 C         1.330858         2.992079         1.283813
 C        -0.068241         2.689715         0.618648
 H        -0.362643        -0.675563         1.395573
 H        -2.492095         1.643674        -0.564911
 H        -2.533680         0.270791         0.498155
 H        -2.124727         1.415859         2.570135
 H        -1.782616         4.048808         1.157698
 H         1.380062         3.694977         3.457060
 H         0.728965         2.140683         3.029595
 H         1.792541         3.888422         1.009103
 H         1.867869         2.121325         1.106114
 H        -0.002140         3.071535        -0.489604
