19
Iteration:   329
 O         0.168499         0.112906         0.896316
 C        -0.613336         1.217868         0.882020
 C        -2.022855         1.169836         0.531455
 C        -1.673998         1.881517         1.772046
 C        -1.140034         3.281638         1.476491
 O        -0.491868         3.893857         2.528776
 C         0.674274         3.197011         2.845922
 C         1.178567         2.854754         1.458966
 C        -0.036086         2.560898         0.537228
 H        -0.020358        -0.540047         0.258564
 H        -2.392940         1.578800        -0.428947
 H        -2.470787         0.218929         0.689145
 H        -1.915938         1.583400         2.876843
 H        -1.863107         3.952132         0.998960
 H         1.480727         3.882048         3.273896
 H         0.534072         2.311960         3.471482
 H         1.722604         3.674114         1.067401
 H         1.894137         2.040853         1.350945
 H         0.062295         2.701588        -0.601682
