19
Iteration:  4582
 O         0.116111         0.014248         0.792238
 C        -0.621828         1.219240         0.834464
 C        -2.017449         1.173340         0.409925
 C        -1.746979         1.849540         1.823193
 C        -1.211038         3.216881         1.462089
 O        -0.547469         3.823029         2.649595
 C         0.758352         3.206142         2.881975
 C         1.299664         2.951773         1.482906
 C        -0.045402         2.622862         0.527506
 H         0.997099         0.304693         1.172310
 H        -2.469802         1.683783        -0.503161
 H        -2.379013         0.219385         0.412533
 H        -2.257845         1.509808         2.730804
 H        -1.792319         4.004947         0.983283
 H         1.286582         4.024576         3.487049
 H         0.719649         2.197305         3.319531
 H         1.627363         3.990341         1.241600
 H         2.221652         2.232321         1.270713
 H         0.210108         3.018256        -0.445866
