19
Iteration:  1510
 O         0.228506         0.107051         0.962394
 C        -0.626731         1.196214         0.835804
 C        -2.075130         1.121409         0.390859
 C        -1.804173         1.888639         1.780284
 C        -1.157679         3.248018         1.503211
 O        -0.516802         3.762575         2.664913
 C         0.789975         3.247856         2.803219
 C         1.278350         2.958308         1.350884
 C        -0.101284         2.641346         0.580821
 H        -0.371982        -0.730280         0.937414
 H        -2.213176         1.815789        -0.435386
 H        -2.488959         0.171552         0.304299
 H        -2.141584         1.477828         2.687300
 H        -1.797625         4.040775         0.980804
 H         1.453729         3.999398         3.168336
 H         0.852982         2.308159         3.454997
 H         1.911573         3.753994         0.884812
 H         2.016925         2.120955         1.353229
 H         0.005221         2.974831        -0.502209
