19
Iteration:  1182
 O         0.041246        -0.035638         0.943602
 C        -0.583653         1.203429         0.770999
 C        -2.145245         1.257392         0.395336
 C        -1.704683         1.723590         1.804201
 C        -1.070781         3.136644         1.573565
 O        -0.585980         3.755343         2.636732
 C         0.783075         3.480763         2.797955
 C         1.322643         2.965670         1.404830
 C         0.049804         2.654291         0.589718
 H         0.012265        -0.355582        -0.044285
 H        -2.653573         1.954847        -0.290469
 H        -2.608754         0.133016         0.411278
 H        -2.101598         1.490953         2.798559
 H        -1.750374         3.820600         1.053493
 H         1.344431         4.413195         3.016269
 H         0.876928         2.652077         3.464722
 H         1.881647         3.716304         0.907802
 H         2.052254         2.087712         1.586660
 H         0.099627         2.969833        -0.415430
