19
Iteration:  4915
 O         0.068922         0.070554         0.890530
 C        -0.622031         1.225741         0.760478
 C        -1.954016         1.222219         0.333332
 C        -1.718620         1.712548         1.696106
 C        -1.217528         3.243422         1.589797
 O        -0.528761         3.818445         2.692032
 C         0.784602         3.226291         2.773217
 C         1.322853         2.929650         1.413696
 C        -0.083827         2.684503         0.597665
 H         0.437832        -0.002462         1.786848
 H        -2.367287         1.860481        -0.374312
 H        -2.393304         0.170153         0.184920
 H        -2.059542         1.130432         2.710067
 H        -1.901785         4.007496         1.266735
 H         1.292837         3.927290         3.299983
 H         0.669595         2.399012         3.495973
 H         1.901008         3.786928         1.082411
 H         1.869822         2.047940         1.474171
 H         0.021105         2.982414        -0.420265
