19
Iteration:  3157charge 0 multiplicity 1
 O         0.155259         0.003761         0.739413
 C        -0.584769         1.196227         0.787388
 C        -2.087946         1.214652         0.536546
 C        -1.660506         1.783712         1.751826
 C        -1.138463         3.290348         1.470333
 O        -0.492408         3.919406         2.645878
 C         0.609861         3.195852         2.862497
 C         1.210524         2.980584         1.432512
 C        -0.015715         2.574234         0.575406
 H         0.493332        -0.214358         1.655114
 H        -2.434080         1.659819        -0.425509
 H        -2.442614         0.194465         0.689660
 H        -1.931762         1.369276         2.781709
 H        -1.789933         4.094634         1.031883
 H         1.447272         3.634419         3.513441
 H         0.573637         2.156147         3.298393
 H         1.824430         3.915263         1.051578
 H         1.962856         2.190574         1.569939
 H        -0.053988         2.871507        -0.533755
