19
Iteration:   930
 O         0.080298         0.046593         0.934802
 C        -0.628965         1.239296         0.833097
 C        -2.036558         1.240626         0.427710
 C        -1.696153         1.747815         1.793615
 C        -1.170452         3.210030         1.581817
 O        -0.519815         3.851377         2.569451
 C         0.807957         3.366428         2.765172
 C         1.262183         2.862944         1.400638
 C        -0.035645         2.558101         0.629892
 H         0.079423        -0.354582         0.082037
 H        -2.375748         1.975337        -0.374984
 H        -2.458461         0.308416         0.394146
 H        -2.022854         1.305182         2.852192
 H        -1.815253         3.773152         0.939778
 H         1.524201         4.168478         3.109088
 H         0.707151         2.547967         3.571691
 H         1.714683         3.739342         0.972420
 H         2.060531         2.004485         1.486982
 H        -0.157951         2.927461        -0.473128
