19
Iteration:   963
 O         0.057216        -0.153070         0.961409
 C        -0.639720         1.179304         0.858198
 C        -2.150903         1.260955         0.366910
 C        -1.760203         1.814656         1.686129
 C        -1.177699         3.217163         1.575180
 O        -0.534748         3.751386         2.693118
 C         0.898925         3.499700         2.740631
 C         1.333359         3.008001         1.339482
 C        -0.010252         2.552326         0.666770
 H         0.716641        -0.184659         0.256447
 H        -2.496092         2.021993        -0.414686
 H        -2.644281         0.373716         0.410681
 H        -2.166522         1.259987         2.658717
 H        -1.670985         3.962467         0.955589
 H         1.449807         4.425753         3.113303
 H         0.917029         2.715595         3.634147
 H         1.815837         3.828316         0.829895
 H         2.167267         2.164774         1.523557
 H        -0.123977         2.927183        -0.425746
