19
Iteration:  4971
 O         0.160010         0.096483         0.861417
 C        -0.611658         1.240181         0.809108
 C        -2.061893         1.180531         0.418144
 C        -1.750748         1.834548         1.742532
 C        -1.143919         3.248966         1.465941
 O        -0.532855         3.802118         2.635573
 C         0.716155         3.044836         2.850978
 C         1.244100         2.970172         1.412328
 C         0.017445         2.684623         0.615126
 H         0.961066         0.355708         1.284150
 H        -2.487416         1.718397        -0.397557
 H        -2.350858         0.158598         0.779595
 H        -2.425227         1.560219         2.710712
 H        -1.785674         4.005664         1.010927
 H         1.184921         3.653667         3.520973
 H         0.369973         2.158969         3.354144
 H         1.705746         3.893000         1.099010
 H         1.921025         2.212316         1.116520
 H         0.210700         2.923493        -0.399409
