19
Iteration:   661charge 0 multiplicity 1
 O         0.154723         0.146960         0.944554
 C        -0.658683         1.277597         0.812274
 C        -2.049528         1.026878         0.530961
 C        -1.676146         1.951908         1.784167
 C        -1.164620         3.279449         1.376412
 O        -0.484434         3.886592         2.571110
 C         0.737419         3.083726         2.875414
 C         1.264671         2.830602         1.429707
 C        -0.051765         2.665996         0.538350
 H        -0.229690        -0.593004         0.380033
 H        -2.643016         1.462809        -0.408678
 H        -2.355682         0.066397         0.909054
 H        -2.114992         1.520028         2.815680
 H        -1.912196         4.081749         1.105875
 H         1.287266         3.886513         3.248997
 H         0.676125         2.105749         3.416369
 H         1.626707         3.853617         0.994419
 H         2.101638         2.129453         1.425119
 H         0.280318         3.029664        -0.498986
