19
Iteration:    81
 O         0.118395        -0.023671         0.967894
 C        -0.624162         1.190814         0.782205
 C        -2.145629         1.246101         0.454134
 C        -1.697102         1.800893         1.757930
 C        -1.164647         3.179933         1.545131
 O        -0.597871         3.869704         2.566244
 C         0.728731         3.372241         2.839393
 C         1.317728         2.921551         1.419671
 C         0.114769         2.587447         0.568698
 H         0.373021        -0.397101         0.139188
 H        -2.548770         1.934918        -0.338100
 H        -2.653471         0.263922         0.733573
 H        -2.218727         1.411239         2.688289
 H        -1.954465         3.882255         1.111291
 H         1.396492         4.107049         3.200041
 H         0.823662         2.409136         3.380084
 H         2.071514         3.709815         0.943945
 H         2.046510         2.031099         1.508453
 H         0.228700         2.988651        -0.509005
