19
Iteration:  4042
 O         0.159848         0.062946         0.770094
 C        -0.609688         1.224823         0.811541
 C        -2.066050         1.202267         0.410058
 C        -1.627918         1.828609         1.850229
 C        -1.172259         3.212640         1.515973
 O        -0.519394         3.861977         2.638452
 C         0.697336         3.169534         2.848327
 C         1.179965         2.951385         1.420517
 C        -0.000962         2.639428         0.522245
 H         0.534354        -0.092309         1.677667
 H        -2.425634         1.831749        -0.456707
 H        -2.445399         0.109341         0.696175
 H        -2.123239         1.306694         2.687997
 H        -1.834566         4.047472         1.279120
 H         1.372678         3.663789         3.520192
 H         0.506245         2.224169         3.366989
 H         1.707010         3.794282         0.987573
 H         1.930938         2.100418         1.421855
 H        -0.021308         2.940762        -0.469301
