19
Iteration:  3296charge 0 multiplicity 1
 O         0.144811         0.065414         0.919165
 C        -0.573771         1.219044         0.811018
 C        -2.071921         1.260728         0.356798
 C        -1.650712         1.781638         1.735218
 C        -1.150435         3.203316         1.559312
 O        -0.518326         3.834289         2.655408
 C         0.685189         3.120039         2.804233
 C         1.281666         2.984072         1.314135
 C        -0.032540         2.633985         0.588353
 H         0.389935        -0.104978         1.809256
 H        -2.599780         1.778336        -0.431893
 H        -2.529841         0.261279         0.591086
 H        -2.149475         1.519971         2.760517
 H        -1.966442         3.939193         1.113820
 H         1.306766         3.650553         3.529521
 H         0.521019         2.212043         3.335600
 H         1.451950         4.034453         1.120578
 H         2.155636         2.353605         1.161611
 H        -0.194299         2.990444        -0.413663
