19
Iteration:  3490charge 0 multiplicity 1
 O         0.161291         0.090178         0.812660
 C        -0.637545         1.274305         0.845730
 C        -2.055334         1.193248         0.426621
 C        -1.726289         1.785856         1.743929
 C        -1.117806         3.208487         1.497658
 O        -0.544188         3.881975         2.675041
 C         0.720644         3.197530         2.827028
 C         1.223220         2.867192         1.399333
 C        -0.038286         2.604805         0.576211
 H         1.054330         0.186211         1.214769
 H        -2.672861         1.658825        -0.365038
 H        -2.476912         0.140031         0.582635
 H        -2.017096         1.453492         2.790301
 H        -1.701105         4.009802         1.173713
 H         1.365031         3.857327         3.389588
 H         0.583726         2.297238         3.476433
 H         1.888447         3.584019         0.941337
 H         2.009481         1.958149         1.417143
 H        -0.082131         3.190551        -0.422417
