19
Iteration:  3129charge 0 multiplicity 1
 O         0.125705         0.076981         0.811396
 C        -0.587008         1.240059         0.764916
 C        -2.027289         1.282217         0.494927
 C        -1.652343         1.772290         1.862852
 C        -1.173169         3.154996         1.495793
 O        -0.515651         3.894274         2.520567
 C         0.651275         3.114644         2.860224
 C         1.249654         2.922937         1.396502
 C        -0.030759         2.626852         0.623542
 H         0.669293         0.227891         1.593168
 H        -2.414177         1.897675        -0.298278
 H        -2.322049         0.153815         0.511112
 H        -2.125757         1.630311         2.846834
 H        -1.913423         3.892812         1.063645
 H         1.384100         3.636659         3.424479
 H         0.462485         2.098041         3.221361
 H         1.636416         3.859317         1.126174
 H         2.039972         2.141510         1.390743
 H        -0.089980         3.019565        -0.380358
