19
Iteration:  2657charge 0 multiplicity 1
 O         0.162967        -0.002276         0.811799
 C        -0.628016         1.200349         0.773379
 C        -2.130283         1.313320         0.456819
 C        -1.612421         1.710922         1.784698
 C        -1.212351         3.159763         1.525827
 O        -0.578920         3.868115         2.580839
 C         0.791521         3.252190         2.787573
 C         1.289246         2.948898         1.490018
 C        -0.028875         2.598270         0.590836
 H         0.081445        -0.227284         1.723941
 H        -2.388402         2.144521        -0.241297
 H        -2.848498         0.392405         0.466674
 H        -1.829194         1.473924         2.810203
 H        -1.996478         3.914605         1.026075
 H         1.472110         4.073176         3.318712
 H         0.871228         2.534530         3.532091
 H         1.724599         3.892877         0.958879
 H         2.096808         2.171415         1.451172
 H         0.097828         3.029967        -0.442928
