19
Iteration:  3338charge 0 multiplicity 1
 O         0.232804         0.110103         0.945784
 C        -0.692715         1.282935         0.817542
 C        -2.074484         1.137368         0.372191
 C        -1.702762         1.923979         1.728547
 C        -1.153392         3.253804         1.560506
 O        -0.545337         3.798808         2.711831
 C         0.697123         3.098065         2.807748
 C         1.241487         2.848328         1.278268
 C        -0.008497         2.677341         0.590875
 H         1.071959         0.469201         1.340705
 H        -2.444072         1.553230        -0.550282
 H        -2.374389         0.127136         0.725186
 H        -2.355212         1.418073         2.523546
 H        -1.705759         4.168045         1.087055
 H         1.307072         3.742077         3.398738
 H         0.512907         2.076328         3.317523
 H         1.625833         3.669119         0.771914
 H         1.933776         1.980834         1.244992
 H        -0.001178         3.058324        -0.441528
