19
Iteration:  1700charge 0 multiplicity 1
 O         0.116791        -0.024292         0.858646
 C        -0.595326         1.241721         0.851057
 C        -2.039862         1.148926         0.479383
 C        -1.773039         1.844174         1.770989
 C        -1.191172         3.230495         1.542007
 O        -0.582841         3.842764         2.625776
 C         0.764262         3.271964         2.816585
 C         1.330561         3.013371         1.419132
 C         0.051274         2.595665         0.541099
 H        -0.347759        -0.707970         0.419356
 H        -2.355086         1.768976        -0.407952
 H        -2.463002         0.232638         0.713326
 H        -2.061742         1.458411         2.725114
 H        -1.772300         3.926741         0.968085
 H         1.422295         4.023648         3.363343
 H         0.660189         2.458558         3.434355
 H         1.804436         3.954495         0.929982
 H         2.074693         2.260451         1.403784
 H         0.186911         2.838471        -0.535100
