19
Iteration:  3580
 O         0.060187         0.062432         0.892470
 C        -0.680046         1.231700         0.783902
 C        -2.030080         1.166529         0.347678
 C        -1.748511         1.758540         1.702034
 C        -1.123854         3.281529         1.530545
 O        -0.563876         3.733224         2.692900
 C         0.878855         3.266970         2.785999
 C         1.261942         2.969095         1.375804
 C        -0.034628         2.625194         0.708158
 H         0.882489         0.209858         1.348408
 H        -2.436564         1.778331        -0.487937
 H        -2.424411         0.149839         0.474608
 H        -2.240272         1.513811         2.613883
 H        -1.908845         3.856446         1.050897
 H         1.539492         4.045716         3.208094
 H         0.888049         2.454951         3.535688
 H         1.555164         3.940426         0.898387
 H         2.250948         2.235964         1.411987
 H        -0.085631         2.948426        -0.424131
