19
Iteration:  3002
 O         0.041600         0.016084         0.963248
 C        -0.613857         1.239352         0.817079
 C        -2.018950         1.185345         0.332961
 C        -1.782294         1.814296         1.675397
 C        -1.128553         3.124430         1.628155
 O        -0.473575         3.817464         2.663692
 C         0.758125         3.170713         2.762728
 C         1.283083         3.134729         1.312822
 C        -0.029894         2.630481         0.635288
 H         0.518424        -0.078368         1.784146
 H        -2.428295         1.636455        -0.499084
 H        -2.431152         0.141173         0.411262
 H        -2.141992         1.488081         2.660497
 H        -1.841335         3.918503         1.148764
 H         1.425903         3.694748         3.420388
 H         0.720834         2.150399         3.126972
 H         1.614132         4.090232         0.908605
 H         2.123704         2.400537         1.189013
 H        -0.010641         3.093039        -0.350113
