19
Iteration:  2377
 O         0.014971         0.012356         0.830628
 C        -0.587304         1.236773         0.750698
 C        -2.066553         1.136872         0.542654
 C        -1.685998         1.755753         1.812487
 C        -1.095550         3.276560         1.505310
 O        -0.561076         3.935768         2.572526
 C         0.710512         3.185047         2.829287
 C         1.269967         2.973180         1.411308
 C         0.041004         2.616343         0.618042
 H         1.013952         0.196029         0.825846
 H        -2.641670         1.611107        -0.340011
 H        -2.409398         0.028341         0.689296
 H        -1.773767         1.271097         2.725785
 H        -1.879301         3.817752         1.029617
 H         1.347262         3.813826         3.418027
 H         0.453402         2.161796         3.349228
 H         1.593812         3.981953         0.997438
 H         2.067091         2.232662         1.440437
 H         0.178750         3.017376        -0.421609
