19
Iteration:   902
 O         0.183909         0.078072         0.930456
 C        -0.646240         1.172385         0.721283
 C        -2.134418         1.105336         0.492949
 C        -1.615361         1.816156         1.795643
 C        -1.152820         3.267508         1.537476
 O        -0.472729         3.993433         2.610948
 C         0.713417         3.213159         2.806055
 C         1.242979         2.848366         1.445836
 C        -0.041942         2.686744         0.512759
 H        -0.196385        -0.625287         0.468186
 H        -2.550357         1.591163        -0.378691
 H        -2.616781         0.040428         0.658545
 H        -1.916412         1.545028         2.780068
 H        -1.919330         3.938212         0.998210
 H         1.480213         3.638471         3.430765
 H         0.424348         2.254881         3.318513
 H         2.033596         3.592646         1.090808
 H         1.858825         1.976494         1.500914
 H        -0.104515         3.065970        -0.467582
