19
Iteration:   205
 O         0.123151         0.132367         1.147566
 C        -0.677776         1.178435         0.877278
 C        -1.946436         1.166400         0.256924
 C        -1.764347         1.810849         1.709551
 C        -1.195621         3.222392         1.529311
 O        -0.433144         3.817094         2.708734
 C         0.854185         3.213851         2.782488
 C         1.226633         2.998377         1.244148
 C        -0.098960         2.590124         0.567888
 H        -0.461800        -0.607140         1.072760
 H        -2.139485         1.892614        -0.543743
 H        -2.464630         0.272419         0.228805
 H        -2.459209         1.567787         2.414644
 H        -1.991991         3.884684         1.228389
 H         1.533486         3.929768         3.295452
 H         0.923642         2.279002         3.297193
 H         1.474336         3.953498         0.902565
 H         1.956821         2.241929         1.131258
 H         0.076058         2.697367        -0.521995
