19
Iteration:  3026
 O         0.065945        -0.050585         1.008267
 C        -0.654145         1.170817         0.819638
 C        -2.048418         1.252996         0.283892
 C        -1.661796         1.722501         1.714365
 C        -1.174530         3.249483         1.530944
 O        -0.496113         3.771352         2.737864
 C         0.851271         3.234173         2.813348
 C         1.263555         3.088891         1.326258
 C        -0.105501         2.675048         0.541903
 H         0.133935        -0.300729         1.980615
 H        -2.364676         1.946995        -0.595334
 H        -2.465962         0.332850         0.083931
 H        -2.085030         1.323183         2.598986
 H        -2.025339         4.085900         1.285113
 H         1.533664         3.997860         3.271879
 H         0.940670         2.296521         3.383696
 H         1.516894         4.147408         0.948402
 H         2.123678         2.458508         1.071834
 H         0.179981         2.909686        -0.522885
