19
Iteration:  1427
 O         0.188908         0.064162         0.876435
 C        -0.617277         1.196091         0.883072
 C        -2.022547         1.218699         0.459355
 C        -1.613224         1.810693         1.886935
 C        -1.165315         3.232167         1.468788
 O        -0.531994         3.929247         2.595536
 C         0.702444         3.207141         2.809434
 C         1.229932         2.905592         1.350594
 C        -0.046589         2.598750         0.561928
 H        -0.280548        -0.650311         0.502743
 H        -2.498374         1.927895        -0.245378
 H        -2.526036         0.172169         0.267877
 H        -2.074996         1.403157         2.732214
 H        -1.972892         3.902316         1.170222
 H         1.326551         3.791131         3.603349
 H         0.481446         2.345592         3.305619
 H         1.686966         3.780761         0.833774
 H         1.808668         2.015136         1.482150
 H         0.190650         2.861034        -0.438892
