19
Iteration:  4312
 O         0.155812        -0.030033         0.789893
 C        -0.575205         1.135213         0.789565
 C        -2.041220         1.273791         0.380391
 C        -1.747468         1.792473         1.771986
 C        -1.119748         3.181178         1.598084
 O        -0.530644         3.903663         2.630963
 C         0.760419         3.199889         2.880039
 C         1.175368         3.006492         1.399659
 C        -0.061248         2.616501         0.600715
 H         0.831696         0.152112         1.408389
 H        -2.425554         1.816773        -0.486784
 H        -2.598795         0.391168         0.384562
 H        -2.276231         1.324185         2.664704
 H        -1.836441         3.748064         0.922210
 H         1.481585         3.903273         3.435050
 H         0.709260         2.246876         3.600182
 H         1.731663         4.055971         1.031626
 H         2.099454         2.269158         1.491563
 H        -0.159384         3.108824        -0.430429
