19
Iteration:  2452charge 0 multiplicity 1
 O         0.284626         0.164007         1.061675
 C        -0.658581         1.259663         0.819660
 C        -2.089946         1.204039         0.284135
 C        -1.842074         1.798340         1.721238
 C        -1.206661         3.206315         1.628421
 O        -0.464667         3.784263         2.670670
 C         0.871305         3.196288         2.732888
 C         1.228774         2.879996         1.294156
 C        -0.101108         2.664108         0.602385
 H        -0.066093        -0.420246         1.698585
 H        -2.467440         1.790969        -0.613709
 H        -2.623205         0.129227         0.400882
 H        -2.053631         1.240757         2.576533
 H        -1.823741         3.867601         1.050792
 H         1.555757         4.045103         3.134866
 H         0.857185         2.371853         3.302746
 H         1.606867         3.851190         0.843337
 H         1.839785         1.993334         1.198684
 H        -0.105852         2.923554        -0.493662
