19
Iteration:   504charge 0 multiplicity 1
 O         0.152042         0.098448         1.079976
 C        -0.626604         1.190607         0.900667
 C        -2.030676         1.169619         0.308534
 C        -1.747565         1.805361         1.741512
 C        -1.195935         3.221928         1.555301
 O        -0.401460         3.984652         2.567569
 C         0.782930         3.109440         2.787962
 C         1.173962         2.863184         1.323908
 C        -0.126336         2.614293         0.612710
 H         0.818642         0.109181         0.429322
 H        -2.334619         1.754893        -0.562847
 H        -2.555270         0.270750         0.443560
 H        -2.120198         1.413285         2.677767
 H        -1.919427         3.992027         1.241367
 H         1.650937         3.595176         3.372501
 H         0.445975         2.224300         3.328620
 H         1.386836         3.856432         1.124156
 H         2.045991         2.253006         1.006583
 H         0.067578         2.976213        -0.376055
