19
Iteration:   145charge 0 multiplicity 1
 O         0.317345         0.219324         1.002846
 C        -0.667211         1.269222         0.858683
 C        -2.097815         1.125327         0.495512
 C        -1.767566         1.954129         1.750763
 C        -1.085910         3.287499         1.418526
 O        -0.520718         3.796228         2.580247
 C         0.678916         3.009508         2.788758
 C         1.227159         2.877255         1.352569
 C        -0.031864         2.647607         0.546850
 H        -0.069010        -0.611769         1.387245
 H        -2.568534         1.618129        -0.367860
 H        -2.530720         0.090430         0.736004
 H        -2.142337         1.559450         2.761131
 H        -1.782297         4.060656         1.012084
 H         1.259982         3.629792         3.453385
 H         0.326522         2.108237         3.331550
 H         1.745488         3.781794         0.888883
 H         2.124225         2.193131         1.219225
 H         0.083213         2.750705        -0.488017
