19
Iteration:  3099
 O         0.107876         0.055777         0.904010
 C        -0.651557         1.216505         0.771668
 C        -2.081690         1.140110         0.349206
 C        -1.658192         1.841201         1.751442
 C        -1.208876         3.243204         1.507182
 O        -0.563156         3.847437         2.734427
 C         0.801085         3.239560         2.832531
 C         1.290894         2.860068         1.355221
 C        -0.030079         2.648263         0.607173
 H         0.961919         0.421141         1.147773
 H        -2.459478         1.586061        -0.527914
 H        -2.449352         0.079522         0.387722
 H        -2.192040         1.749301         2.696105
 H        -1.849097         3.935645         1.189138
 H         1.485271         3.995204         3.222629
 H         0.782199         2.279914         3.473433
 H         1.801587         3.703701         0.947950
 H         1.995800         1.989336         1.356137
 H        -0.084906         3.005095        -0.394066
