19
Iteration:    33
 O         0.030967        -0.102468         0.974503
 C        -0.619971         1.186280         0.867820
 C        -2.053965         1.334718         0.348934
 C        -1.696918         1.754388         1.734816
 C        -1.180251         3.154112         1.628270
 O        -0.505747         3.885305         2.572647
 C         0.725275         3.419427         2.832597
 C         1.331973         2.958286         1.380163
 C        -0.009520         2.517728         0.578445
 H         0.796042        -0.079668         0.336251
 H        -2.424112         1.986506        -0.414972
 H        -2.381466         0.334210         0.392209
 H        -2.269410         1.312223         2.513603
 H        -1.899703         3.835159         1.250024
 H         1.364924         4.223848         3.188148
 H         0.787524         2.569414         3.478347
 H         1.622232         3.842706         0.876423
 H         2.224267         2.386010         1.391294
 H         0.063641         2.624367        -0.406372
