19
Iteration:  3225charge 0 multiplicity 1
 O         0.138299        -0.030562         0.877696
 C        -0.648694         1.172069         0.903868
 C        -2.071965         1.271332         0.285989
 C        -1.742317         1.808629         1.645931
 C        -1.190073         3.216624         1.584349
 O        -0.524289         3.773696         2.728753
 C         0.823055         3.398422         2.804584
 C         1.305483         2.908959         1.376996
 C        -0.102674         2.560678         0.644873
 H         0.957058         0.365099         1.093831
 H        -2.337830         2.011973        -0.460575
 H        -2.654063         0.216835         0.225669
 H        -2.233667         1.269689         2.431965
 H        -2.097042         3.889279         1.287011
 H         1.457685         4.343985         3.003024
 H         0.989128         2.681161         3.672471
 H         1.782792         3.798966         0.827328
 H         1.928459         2.004870         1.497607
 H         0.157305         2.942849        -0.431633
