19
Iteration:   150charge 0 multiplicity 1
 O         0.293954         0.234167         1.010509
 C        -0.675478         1.283640         0.919757
 C        -2.104957         1.123933         0.484639
 C        -1.766848         1.926862         1.738919
 C        -1.029905         3.271436         1.430627
 O        -0.541833         3.780780         2.591580
 C         0.684572         3.005252         2.801290
 C         1.224602         2.868884         1.342950
 C        -0.031557         2.649942         0.484012
 H        -0.105145        -0.516277         1.398854
 H        -2.490300         1.620151        -0.420637
 H        -2.509905         0.190405         0.766802
 H        -2.067082         1.599643         2.666237
 H        -1.763984         3.962046         1.011275
 H         1.289886         3.749577         3.384984
 H         0.401735         2.129730         3.389961
 H         1.678111         3.858249         1.082089
 H         2.100051         2.286145         1.146738
 H         0.086737         2.794273        -0.681379
