19
Iteration:   939
 O         0.057393         0.033923         0.920241
 C        -0.673571         1.193423         0.867356
 C        -2.059572         1.266196         0.411214
 C        -1.680324         1.805523         1.837668
 C        -1.156923         3.107232         1.537644
 O        -0.536441         3.836750         2.639822
 C         0.826096         3.388212         2.731018
 C         1.256536         2.924752         1.385280
 C        -0.003394         2.517012         0.615578
 H         0.360777        -0.240061         0.072941
 H        -2.129362         2.067178        -0.436826
 H        -2.513333         0.284261         0.184312
 H        -2.257657         1.495053         2.773808
 H        -1.832765         3.837364         0.949921
 H         1.430528         4.297253         3.001033
 H         0.895638         2.614922         3.659703
 H         1.784639         3.799276         0.864870
 H         2.053266         2.057327         1.588380
 H         0.014254         2.888737        -0.433475
