19
Iteration:  2675
 O         0.075229         0.030766         0.837943
 C        -0.632820         1.232655         0.792397
 C        -2.079273         1.193794         0.377037
 C        -1.698329         1.767723         1.800665
 C        -1.103288         3.188734         1.549599
 O        -0.530609         3.819270         2.667067
 C         0.754654         3.367506         2.864175
 C         1.254870         2.915417         1.336217
 C         0.001311         2.630378         0.603804
 H         0.546536        -0.008265         1.669177
 H        -2.584695         1.900525        -0.390305
 H        -2.414126         0.192741         0.376167
 H        -2.196387         1.228794         2.581537
 H        -1.720468         3.907493         1.113573
 H         1.381021         4.079503         3.238829
 H         0.788682         2.393628         3.495807
 H         1.805373         3.684331         0.827411
 H         1.987158         2.082648         1.382898
 H        -0.023103         2.849065        -0.459380
