19
Iteration:   230charge 0 multiplicity 1
 O         0.181191         0.027062         1.138599
 C        -0.681097         1.186789         0.902466
 C        -2.084447         1.255937         0.351543
 C        -1.807014         1.851828         1.644351
 C        -1.131109         3.203825         1.483034
 O        -0.524501         3.725521         2.692826
 C         0.828450         3.284495         2.756047
 C         1.316851         3.026175         1.256476
 C        -0.032717         2.574129         0.629048
 H        -0.228029        -0.579178         0.558297
 H        -2.251307         1.906563        -0.467397
 H        -2.739109         0.328803         0.266670
 H        -2.392421         1.544981         2.630825
 H        -1.826712         3.873576         0.985694
 H         1.456746         4.138984         3.180563
 H         1.054909         2.445620         3.424001
 H         1.672652         3.975615         0.877873
 H         2.137863         2.298139         1.261988
 H        -0.042442         2.887939        -0.478190
