19
Iteration:  3028
 O         0.069784        -0.051637         1.012922
 C        -0.645258         1.185716         0.824701
 C        -2.051628         1.265238         0.285057
 C        -1.671679         1.742751         1.700363
 C        -1.176434         3.234453         1.548845
 O        -0.493594         3.762571         2.740463
 C         0.836982         3.245294         2.815599
 C         1.256171         3.087143         1.319879
 C        -0.100196         2.651213         0.531318
 H         0.150707        -0.329416         1.930606
 H        -2.353286         2.013063        -0.632357
 H        -2.429628         0.277985         0.084075
 H        -1.998661         1.367708         2.659378
 H        -2.014598         4.025158         1.291951
 H         1.539758         4.029335         3.217405
 H         0.969264         2.271103         3.378663
 H         1.521590         4.144606         0.939510
 H         2.078851         2.413456         1.100692
 H         0.190736         2.927982        -0.524202
