19
Iteration:  3242
 O         0.039409         0.025007         0.873540
 C        -0.618659         1.224615         0.799448
 C        -2.008501         1.225557         0.306021
 C        -1.837866         1.731817         1.794781
 C        -1.169435         3.173324         1.555578
 O        -0.564832         3.733649         2.722032
 C         0.881367         3.392846         2.775072
 C         1.264187         2.981956         1.373769
 C         0.043690         2.599479         0.634603
 H         0.863503         0.085048         1.340372
 H        -2.217065         1.868659        -0.565461
 H        -2.483388         0.274875         0.275462
 H        -2.405311         1.492178         2.779350
 H        -1.655405         3.981874         1.020492
 H         1.327432         4.297780         3.225002
 H         0.889226         2.515654         3.419253
 H         1.746153         3.802578         0.808441
 H         1.934973         2.121457         1.487627
 H        -0.005367         2.923053        -0.383999
