19
Iteration:  3171charge 0 multiplicity 1
 O         0.115927         0.008490         0.761070
 C        -0.601442         1.235681         0.746804
 C        -2.039988         1.137806         0.443353
 C        -1.684994         1.875729         1.816708
 C        -1.124881         3.179719         1.524921
 O        -0.576426         3.865864         2.611838
 C         0.765829         3.229060         2.850261
 C         1.255213         2.912387         1.442292
 C        -0.010272         2.670360         0.622225
 H         0.512011        -0.029992         1.619862
 H        -2.635817         1.743266        -0.225012
 H        -2.403910         0.015603         0.569083
 H        -2.212341         1.669645         2.766039
 H        -1.935968         3.901070         1.000471
 H         1.252337         3.992677         3.439061
 H         0.513480         2.314863         3.395111
 H         1.726804         3.810465         0.964390
 H         1.935674         2.035215         1.339101
 H         0.156132         3.132567        -0.397231
