19
Iteration:  4411
 O         0.193003         0.103247         0.861450
 C        -0.565249         1.251002         0.935333
 C        -2.022128         1.227932         0.339981
 C        -1.746996         1.783371         1.765645
 C        -1.231850         3.247262         1.593446
 O        -0.542744         3.824900         2.595739
 C         0.742521         3.078051         2.763500
 C         1.261804         2.948064         1.405802
 C        -0.066501         2.668937         0.607335
 H         0.587352         0.013509         1.716925
 H        -2.318084         1.873456        -0.500251
 H        -2.350657         0.280642         0.327849
 H        -2.308620         1.293126         2.612069
 H        -1.960420         3.984924         1.132881
 H         1.425638         3.705972         3.361736
 H         0.659194         2.070779         3.292072
 H         1.795756         3.919673         0.985869
 H         1.966446         2.148086         1.114645
 H        -0.107701         2.871803        -0.487459
