19
Iteration:   220
 O         0.156900         0.063382         1.140926
 C        -0.653163         1.205015         0.900984
 C        -2.018832         1.273133         0.255049
 C        -1.815250         1.861002         1.701071
 C        -1.141419         3.236586         1.554831
 O        -0.502004         3.726542         2.642260
 C         0.876859         3.265840         2.721069
 C         1.175393         2.976621         1.304796
 C        -0.019148         2.546874         0.647186
 H        -0.218980        -0.749258         0.787755
 H        -2.176426         1.845628        -0.638831
 H        -2.538697         0.253617         0.396578
 H        -2.132657         1.256184         2.695631
 H        -1.594581         4.092743         1.009463
 H         1.508445         4.131280         3.084156
 H         0.842420         2.379795         3.396508
 H         1.265898         3.964836         0.780240
 H         2.121144         2.353746         1.178254
 H        -0.152604         2.915521        -0.422764
