19
Iteration:  3919
 O         0.091320         0.008460         0.928102
 C        -0.604001         1.183311         0.780802
 C        -1.994896         1.259081         0.376165
 C        -1.679933         1.728677         1.750936
 C        -1.203117         3.191994         1.567223
 O        -0.510895         3.816811         2.707866
 C         0.768689         3.142393         2.785748
 C         1.240973         3.055605         1.315343
 C        -0.041042         2.726718         0.553644
 H         0.544715         0.041687         1.753488
 H        -2.250465         2.040581        -0.579369
 H        -2.610943         0.370971         0.666083
 H        -2.288097         1.432436         2.568956
 H        -2.032130         3.863274         1.158420
 H         1.524379         3.797424         3.360744
 H         0.617305         2.230775         3.350424
 H         1.813887         3.888883         0.945856
 H         1.948809         2.167643         1.291387
 H        -0.141267         2.970348        -0.446884
