19
Iteration:  2708charge 0 multiplicity 1
 O         0.144205        -0.025787         0.967910
 C        -0.628768         1.272271         0.815184
 C        -2.028704         1.184910         0.374762
 C        -1.886573         1.843650         1.684455
 C        -1.166169         3.232894         1.557586
 O        -0.488212         3.754217         2.705035
 C         0.808781         3.259281         2.827593
 C         1.244082         2.934701         1.306213
 C        -0.030920         2.667004         0.602035
 H         1.053083         0.294645         0.963295
 H        -2.511992         1.736645        -0.511337
 H        -2.324642         0.131227         0.514088
 H        -2.484861         1.541428         2.506425
 H        -1.636054         4.068759         1.185607
 H         1.431185         4.010373         3.188241
 H         0.964213         2.406895         3.627567
 H         1.616505         3.809839         0.808517
 H         1.953985         2.102108         1.203459
 H        -0.050102         2.965079        -0.456159
