19
Iteration:  3685charge 0 multiplicity 1
 O         0.137226         0.084630         0.866470
 C        -0.620890         1.267296         0.864625
 C        -2.039547         1.205606         0.404792
 C        -1.677622         1.824203         1.818055
 C        -1.199443         3.266640         1.470882
 O        -0.504058         3.808579         2.693718
 C         0.702337         3.088271         2.778507
 C         1.232169         2.942523         1.400184
 C        -0.006811         2.623826         0.488539
 H         0.934872         0.182110         1.513081
 H        -2.532653         1.822684        -0.361961
 H        -2.382972         0.154402         0.579050
 H        -2.186788         1.502065         2.733686
 H        -1.872328         3.990773         0.998434
 H         1.277950         3.684355         3.448599
 H         0.483070         2.109731         3.208429
 H         1.606423         3.910216         1.082381
 H         2.073264         2.335845         1.426925
 H         0.037823         2.860580        -0.497299
