19
Iteration:  4508
 O         0.206796         0.049298         0.878523
 C        -0.622633         1.155596         0.808836
 C        -2.015623         1.228176         0.299692
 C        -1.744664         1.795034         1.783142
 C        -1.156589         3.228563         1.604492
 O        -0.560463         3.842680         2.706052
 C         0.778214         3.218786         2.830310
 C         1.230382         2.959712         1.321134
 C        -0.090586         2.610850         0.582398
 H         0.410986         0.006831         1.788843
 H        -2.180150         2.102609        -0.549280
 H        -2.570451         0.330713         0.192168
 H        -2.393899         1.318502         2.501207
 H        -1.902403         3.992431         1.229639
 H         1.604705         3.850343         3.380638
 H         0.726886         2.245860         3.296920
 H         1.815369         3.838108         0.933037
 H         1.920739         2.232356         1.391939
 H        -0.062779         2.912513        -0.473570
