19
Iteration:  2076charge 0 multiplicity 1
 O         0.112843        -0.014470         0.937938
 C        -0.620588         1.212379         0.803843
 C        -2.042671         1.115538         0.450324
 C        -1.722949         1.867362         1.756449
 C        -1.146364         3.298671         1.512986
 O        -0.551705         3.789283         2.669662
 C         0.790379         3.282694         2.783018
 C         1.282926         3.015730         1.420613
 C        -0.022884         2.621634         0.539300
 H        -0.399834        -0.559171         0.247361
 H        -2.462143         1.559173        -0.498518
 H        -2.272994         0.114539         0.640676
 H        -2.160656         1.517295         2.766563
 H        -1.781144         4.106821         1.176436
 H         1.466748         3.970729         3.307172
 H         0.921778         2.191589         3.323676
 H         1.588757         3.983557         1.102977
 H         2.151912         2.291761         1.334994
 H         0.008403         2.924534        -0.510563
