19
Iteration:   960charge 0 multiplicity 1
 O         0.066508        -0.149023         0.954953
 C        -0.650690         1.184338         0.885338
 C        -2.131678         1.283508         0.373977
 C        -1.759939         1.775884         1.678198
 C        -1.163318         3.241645         1.582177
 O        -0.538882         3.747521         2.686009
 C         0.890438         3.516731         2.758520
 C         1.336757         2.986787         1.328810
 C        -0.005475         2.547631         0.653855
 H         0.730409        -0.132095         0.163114
 H        -2.536470         2.089657        -0.386015
 H        -2.737423         0.370072         0.518350
 H        -2.164143         1.311871         2.618765
 H        -1.748922         3.921395         0.859163
 H         1.443916         4.383258         3.160394
 H         0.835883         2.706756         3.564314
 H         1.807922         3.888003         0.807337
 H         2.083063         2.115875         1.497387
 H        -0.100535         2.784833        -0.374186
