19
Iteration:  4410
 O         0.192955         0.104826         0.863425
 C        -0.565948         1.254443         0.922910
 C        -2.022104         1.224312         0.342562
 C        -1.749015         1.781483         1.769925
 C        -1.226641         3.248743         1.597160
 O        -0.544164         3.824982         2.592552
 C         0.734952         3.073819         2.766036
 C         1.261804         2.951869         1.402490
 C        -0.061622         2.664613         0.613023
 H         0.581542         0.002923         1.710555
 H        -2.330962         1.903038        -0.527034
 H        -2.348534         0.249922         0.308467
 H        -2.326573         1.282682         2.634507
 H        -1.950283         4.008658         1.139357
 H         1.463741         3.711037         3.365262
 H         0.683344         2.111308         3.275035
 H         1.807544         3.908666         0.962453
 H         1.938148         2.159454         1.142180
 H        -0.103676         2.861512        -0.471712
