19
Iteration:  2763
 O         0.110685         0.077409         1.006565
 C        -0.616031         1.282506         0.866025
 C        -1.969581         1.114580         0.394191
 C        -1.675495         1.862667         1.707717
 C        -1.160543         3.237203         1.484116
 O        -0.468163         3.775715         2.657899
 C         0.767527         3.019538         2.750909
 C         1.215863         3.044329         1.347812
 C        -0.139119         2.752925         0.552185
 H         0.231589         0.085178         1.935993
 H        -2.141594         1.638308        -0.552548
 H        -2.517385         0.112503         0.612953
 H        -2.125566         1.573621         2.664247
 H        -1.810352         3.969951         1.153081
 H         1.404444         3.474568         3.443128
 H         0.464625         1.938287         3.004635
 H         1.698224         3.934713         0.966894
 H         1.920545         2.223582         1.201291
 H        -0.220758         3.101739        -0.492291
