19
Iteration:  2522charge 0 multiplicity 1
 O         0.153571         0.047854         1.107370
 C        -0.667101         1.148948         0.916531
 C        -2.039304         1.217247         0.329644
 C        -1.784687         1.858665         1.720433
 C        -1.156433         3.175517         1.532327
 O        -0.480084         3.761694         2.685642
 C         0.852807         3.204514         2.747184
 C         1.245908         3.122045         1.288315
 C        -0.040197         2.591540         0.550492
 H         0.064332        -0.354018         0.243549
 H        -2.368787         1.765399        -0.610814
 H        -2.678818         0.282242         0.510315
 H        -2.257004         1.500379         2.723976
 H        -1.845094         3.999765         1.263559
 H         1.440318         3.824244         3.289987
 H         0.878702         2.257235         3.212655
 H         1.421296         4.100175         0.881960
 H         2.090584         2.378967         1.078475
 H        -0.194729         2.933425        -0.481928
