19
Iteration:  4140
 O         0.133837         0.065473         0.855764
 C        -0.654934         1.267179         0.863712
 C        -1.981916         1.255448         0.355505
 C        -1.752832         1.757015         1.764888
 C        -1.200331         3.213482         1.553448
 O        -0.590144         3.766074         2.696807
 C         0.843536         3.173531         2.749522
 C         1.292243         2.979120         1.301841
 C        -0.017760         2.635120         0.673216
 H         0.467923         0.103980         1.800958
 H        -2.403864         1.764626        -0.628011
 H        -2.494164         0.262788         0.366967
 H        -2.298740         1.366274         2.703181
 H        -1.879851         3.960205         1.058844
 H         1.260045         4.042039         3.305346
 H         0.790343         2.248483         3.420976
 H         1.638365         3.862560         0.932496
 H         2.045854         2.188321         1.226160
 H         0.090818         2.987148        -0.370175
