19
Iteration:  4519
 O         0.194851         0.022820         0.887438
 C        -0.659829         1.257045         0.839120
 C        -2.011326         1.283338         0.289119
 C        -1.743830         1.710080         1.748524
 C        -1.162257         3.150890         1.558512
 O        -0.473903         3.828094         2.665367
 C         0.770287         3.234289         2.781221
 C         1.213719         2.953660         1.409911
 C        -0.069054         2.672764         0.631993
 H         0.447426        -0.174937         1.812394
 H        -2.457834         1.891637        -0.690990
 H        -2.460199         0.306052         0.332786
 H        -2.212764         1.325893         2.627030
 H        -1.926282         3.865683         1.126081
 H         1.418596         3.999404         3.449038
 H         0.635370         2.321949         3.377600
 H         1.555577         3.859000         0.840789
 H         1.868410         2.201311         1.346060
 H        -0.197621         3.107379        -0.363301
