19
Iteration:  1923
 O         0.034968         0.042460         1.071899
 C        -0.612333         1.240630         0.836335
 C        -1.945534         1.213291         0.311119
 C        -1.676283         1.752461         1.740069
 C        -1.141864         3.203124         1.572744
 O        -0.529747         3.804271         2.647573
 C         0.844660         3.280416         2.856745
 C         1.196181         2.930029         1.232077
 C        -0.123246         2.678428         0.629260
 H         0.398854        -0.348862         0.291709
 H        -2.326853         2.047104        -0.391170
 H        -2.416714         0.240734         0.107966
 H        -1.997017         1.360940         2.672584
 H        -1.853538         3.908113         1.165699
 H         1.516634         3.988603         3.162695
 H         0.840457         2.359765         3.431771
 H         1.752170         3.767063         0.833813
 H         1.920485         2.015383         1.282236
 H        -0.168845         2.998217        -0.391484
