19
Iteration:  4175charge 0 multiplicity 1
 O         0.125463         0.020462         0.900687
 C        -0.655376         1.185756         0.724769
 C        -2.075097         1.196637         0.359823
 C        -1.664165         1.820473         1.726474
 C        -1.155219         3.247488         1.544375
 O        -0.576632         3.748621         2.712168
 C         0.802682         3.183408         2.802689
 C         1.267944         3.049423         1.365005
 C        -0.028576         2.682454         0.617543
 H         0.403009         0.027654         1.869110
 H        -2.424905         1.747662        -0.585333
 H        -2.512558         0.303482         0.692195
 H        -2.132736         1.357929         2.720450
 H        -1.843925         3.990412         1.174683
 H         1.417310         3.868348         3.310518
 H         0.915199         2.225195         3.398543
 H         1.630865         3.997404         0.969619
 H         2.059000         2.354826         1.131337
 H         0.050672         2.895214        -0.374058
