19
Iteration:  3248charge 0 multiplicity 1
 O        -0.008341         0.039979         0.859603
 C        -0.590705         1.229120         0.794700
 C        -1.982056         1.208119         0.368665
 C        -1.821551         1.759622         1.781880
 C        -1.125227         3.130079         1.538475
 O        -0.588660         3.730702         2.715883
 C         0.846925         3.356621         2.786224
 C         1.315279         3.001523         1.352931
 C         0.002125         2.617707         0.647734
 H         0.760010         0.135152         1.522015
 H        -2.181887         1.827701        -0.531726
 H        -2.523308         0.238982         0.372565
 H        -2.439835         1.454743         2.556843
 H        -1.744288         3.853624         0.846969
 H         1.416395         4.223056         3.141298
 H         0.955745         2.545002         3.559028
 H         1.708103         3.896403         0.881002
 H         2.038136         2.153202         1.364089
 H         0.069336         3.163802        -0.360112
