19
Iteration:  2117
 O         0.118647         0.017977         1.064788
 C        -0.622012         1.218342         0.813022
 C        -2.087969         1.257988         0.380359
 C        -1.724926         1.772633         1.805595
 C        -1.227992         3.178997         1.597605
 O        -0.495811         3.776815         2.614571
 C         0.771885         3.201229         2.711648
 C         1.290508         3.025634         1.336794
 C        -0.023964         2.654844         0.551206
 H         0.719662        -0.219105         0.383503
 H        -2.308085         2.082511        -0.381673
 H        -2.562736         0.402180         0.142821
 H        -2.132869         1.268767         2.764454
 H        -2.046829         3.800293         1.121781
 H         1.413973         4.009413         3.329418
 H         0.800749         2.445521         3.375946
 H         1.698859         3.871419         0.843256
 H         2.126477         2.310279         1.504672
 H         0.068168         3.055718        -0.494703
