19
Iteration:  1500
 O         0.308423         0.093753         0.936803
 C        -0.631088         1.245458         0.814452
 C        -2.082510         1.191554         0.451413
 C        -1.802462         1.880996         1.816792
 C        -1.203739         3.270350         1.492816
 O        -0.587590         3.724320         2.650150
 C         0.819694         3.259277         2.737950
 C         1.302984         2.885008         1.376370
 C        -0.029672         2.630770         0.549589
 H        -0.276075        -0.733974         1.041690
 H        -2.607975         1.719402        -0.361107
 H        -2.512980         0.191782         0.407717
 H        -2.330011         1.773548         2.717063
 H        -1.738810         4.163193         1.108669
 H         1.245784         4.032993         3.395931
 H         0.730913         2.275346         3.413081
 H         1.917968         3.720015         0.937008
 H         1.802620         1.944617         1.430505
 H         0.018099         2.930092        -0.548497
