19
Iteration:  3993
 O         0.095441         0.048344         0.816793
 C        -0.604417         1.174469         0.832041
 C        -2.054150         1.189940         0.381617
 C        -1.671113         1.807131         1.692090
 C        -1.188783         3.175833         1.546001
 O        -0.558834         3.828584         2.769468
 C         0.796718         3.277803         2.825873
 C         1.223792         2.913737         1.386065
 C        -0.037967         2.640694         0.563527
 H         0.844361        -0.040512         1.404101
 H        -2.266128         2.028485        -0.257951
 H        -2.430032         0.266351         0.359709
 H        -2.157005         1.536813         2.659401
 H        -1.820360         4.000822         1.097620
 H         1.347464         4.211475         3.256742
 H         0.990278         2.502054         3.603140
 H         1.765867         3.744483         0.875431
 H         1.862169         2.082140         1.238586
 H        -0.045656         2.940949        -0.538724
