19
Iteration:  1258charge 0 multiplicity 1
 O         0.237413         0.198104         1.065609
 C        -0.613074         1.265229         0.869947
 C        -2.097225         1.231101         0.466660
 C        -1.690116         1.788766         1.781273
 C        -1.147518         3.248333         1.484711
 O        -0.478239         3.822090         2.601443
 C         0.648067         3.054352         2.788853
 C         1.205675         2.891557         1.314220
 C        -0.020303         2.632262         0.513944
 H         0.083692        -0.336331         0.321942
 H        -2.498136         1.921041        -0.310493
 H        -2.446665         0.078527         0.368029
 H        -2.060635         1.428224         2.808062
 H        -1.874731         3.980665         1.067476
 H         1.437559         3.738400         3.186145
 H         0.483565         2.084536         3.295210
 H         1.549716         3.849031         1.053467
 H         2.019798         2.102406         1.298481
 H        -0.008189         2.962792        -0.582072
