19
Iteration:    72
 O         0.074798        -0.101838         0.962870
 C        -0.616496         1.172249         0.802711
 C        -2.156996         1.256567         0.424347
 C        -1.684069         1.769427         1.743955
 C        -1.128139         3.208616         1.545938
 O        -0.574838         3.864496         2.622561
 C         0.728333         3.414982         2.780238
 C         1.371667         2.954899         1.371408
 C         0.108463         2.602098         0.624296
 H         0.494088        -0.171283         0.122068
 H        -2.728653         1.762948        -0.366466
 H        -2.653630         0.170062         0.499582
 H        -2.129012         1.395207         2.764626
 H        -1.821734         3.925276         0.978088
 H         1.050127         4.251176         3.434967
 H         0.568838         2.584722         3.541918
 H         2.057406         3.750920         0.836542
 H         1.908062         1.964235         1.615720
 H         0.036301         3.079563        -0.498476
