19
Iteration:  4593
 O         0.121978         0.103403         0.789293
 C        -0.630170         1.216222         0.867525
 C        -2.051567         1.149496         0.395494
 C        -1.779659         1.801924         1.724902
 C        -1.132243         3.159102         1.525817
 O        -0.484890         3.878947         2.640958
 C         0.672910         3.190567         2.843534
 C         1.249224         2.998009         1.418152
 C         0.011357         2.603627         0.638617
 H         1.054864         0.218672         1.156425
 H        -2.415737         1.779350        -0.474280
 H        -2.357980         0.180849         0.413530
 H        -2.163135         1.555281         2.704058
 H        -1.862530         3.897671         1.193915
 H         1.426476         3.684231         3.517845
 H         0.454677         2.275689         3.430906
 H         1.765726         3.876777         0.948782
 H         2.054961         2.133477         1.494524
 H         0.018966         2.720456        -0.437514
