19
Iteration:  4865
 O         0.070604        -0.031904         0.799196
 C        -0.607987         1.221374         0.884180
 C        -2.015356         1.229300         0.383726
 C        -1.800960         1.846846         1.735141
 C        -1.168415         3.199453         1.472000
 O        -0.581738         3.732915         2.726776
 C         0.821645         3.270073         2.838750
 C         1.271378         3.062102         1.390006
 C         0.059997         2.599979         0.617180
 H         0.863646        -0.093187         1.321972
 H        -2.442304         1.772402        -0.487727
 H        -2.485989         0.152157         0.185188
 H        -2.417511         1.712840         2.645883
 H        -1.831532         4.013131         1.051569
 H         1.305353         4.050273         3.574717
 H         0.764931         2.357308         3.465320
 H         1.603071         3.971355         0.843906
 H         2.081923         2.235779         1.443084
 H         0.260595         2.920070        -0.506235
