19
Iteration:  3583charge 0 multiplicity 1
 O         0.073651         0.053930         0.900463
 C        -0.705525         1.231207         0.772529
 C        -1.997731         1.187723         0.339571
 C        -1.747438         1.769753         1.697300
 C        -1.133536         3.270974         1.524202
 O        -0.560984         3.736817         2.713861
 C         0.887673         3.279161         2.778754
 C         1.281981         2.939714         1.372218
 C        -0.062455         2.622666         0.696273
 H         0.901027         0.248278         1.349990
 H        -2.442729         1.739600        -0.437447
 H        -2.466634         0.162523         0.440848
 H        -2.290532         1.499639         2.670246
 H        -1.997973         3.865654         1.092853
 H         1.536929         4.107538         3.239495
 H         0.815913         2.430591         3.485584
 H         1.600685         3.927117         0.922472
 H         2.198057         2.370855         1.398821
 H        -0.085497         2.840324        -0.357759
