19
Iteration:  2054charge 0 multiplicity 1
 O         0.211163         0.096472         0.905590
 C        -0.636613         1.222384         0.906532
 C        -2.052326         1.161862         0.448995
 C        -1.731098         1.823800         1.764423
 C        -1.188686         3.178037         1.538815
 O        -0.519952         3.879624         2.621884
 C         0.744744         3.198191         2.781610
 C         1.262064         2.924124         1.320935
 C        -0.024480         2.652505         0.614998
 H        -0.327847        -0.511463         0.445636
 H        -2.263860         1.895066        -0.375379
 H        -2.478844         0.218230         0.514573
 H        -2.304160         1.572348         2.720957
 H        -1.676306         3.922426         0.986602
 H         1.303531         3.922840         3.346112
 H         0.738448         2.126313         3.334567
 H         1.804541         3.746357         0.939247
 H         1.920178         1.993583         1.339625
 H        -0.000709         3.036086        -0.397370
