19
Iteration:  2121
 O         0.101552         0.030741         1.061344
 C        -0.571085         1.219528         0.815178
 C        -2.048067         1.261683         0.370493
 C        -1.767464         1.761923         1.810080
 C        -1.223866         3.171607         1.589809
 O        -0.493298         3.803442         2.624942
 C         0.744449         3.220745         2.725860
 C         1.268537         2.993095         1.289401
 C        -0.007833         2.667711         0.581187
 H         0.858625        -0.151703         0.400828
 H        -2.247996         2.068000        -0.314474
 H        -2.675300         0.311887         0.176327
 H        -2.146258         1.333496         2.737100
 H        -2.037432         3.774726         1.246270
 H         1.474493         3.895201         3.157832
 H         0.806530         2.230919         3.492427
 H         1.707737         3.888781         0.833963
 H         2.049852         2.177944         1.361757
 H        -0.009480         3.031872        -0.443055
