19
Iteration:  1554charge 0 multiplicity 1
 O         0.089229         0.001669         1.129107
 C        -0.572098         1.141918         0.925037
 C        -2.044566         1.263057         0.334652
 C        -1.739583         1.750281         1.689434
 C        -1.161412         3.174971         1.509006
 O        -0.503420         3.782078         2.679711
 C         0.815170         3.221023         2.731456
 C         1.236333         3.108372         1.286329
 C        -0.046592         2.671905         0.600154
 H         0.074275        -0.538209         0.242768
 H        -2.145259         1.957684        -0.463346
 H        -2.754858         0.439619         0.288226
 H        -2.005711         1.381790         2.634972
 H        -1.775525         4.068820         1.193510
 H         1.272050         3.867204         3.429661
 H         0.690164         2.252001         3.129451
 H         1.734189         4.059856         0.953917
 H         2.080926         2.411822         1.031183
 H        -0.136396         3.041247        -0.473962
