19
Iteration:   647charge 0 multiplicity 1
 O         0.170189         0.116635         0.955588
 C        -0.636775         1.213351         0.769578
 C        -2.130957         1.097166         0.521379
 C        -1.606196         1.858191         1.704459
 C        -1.124436         3.325153         1.479941
 O        -0.529609         3.848845         2.620887
 C         0.724650         3.200843         2.798702
 C         1.233051         2.899157         1.417780
 C         0.012168         2.638476         0.531798
 H        -0.347881        -0.611142         0.701998
 H        -2.595796         1.478281        -0.292010
 H        -2.642680         0.122875         0.877121
 H        -1.928397         1.627034         2.747314
 H        -1.796457         4.050423         0.965981
 H         1.430702         3.701870         3.510646
 H         0.484343         2.352069         3.445817
 H         1.851292         3.666714         1.057247
 H         1.822974         1.935663         1.314699
 H         0.073982         2.915280        -0.432813
