19
Iteration:   426
 O         0.167400         0.127160         1.058389
 C        -0.673008         1.221279         0.864146
 C        -2.054220         1.155799         0.349583
 C        -1.790490         1.835646         1.720161
 C        -1.178837         3.199813         1.484946
 O        -0.503685         3.882561         2.640797
 C         0.859105         3.164389         2.779779
 C         1.280114         2.963909         1.325617
 C        -0.032594         2.583154         0.662645
 H        -0.331407        -0.565829         0.653472
 H        -2.453043         1.599190        -0.573975
 H        -2.383071         0.161227         0.411717
 H        -2.416116         1.282388         2.561601
 H        -1.786574         3.971478         0.960915
 H         1.555519         3.998565         3.170079
 H         0.831044         2.293826         3.417262
 H         1.693949         3.881352         0.988755
 H         2.042540         2.218680         1.131114
 H        -0.035936         2.987054        -0.334742
