19
Iteration:  2395
 O         0.092051         0.025987         0.825475
 C        -0.627944         1.232604         0.771026
 C        -2.125832         1.075747         0.510098
 C        -1.580860         1.850452         1.792988
 C        -1.156493         3.223447         1.461854
 O        -0.481557         3.883459         2.610478
 C         0.674451         3.163116         2.839671
 C         1.271313         2.980434         1.447136
 C        -0.018780         2.677773         0.530194
 H         0.714341         0.144133         1.621076
 H        -2.724549         1.618712        -0.276335
 H        -2.478542         0.105020         0.664503
 H        -1.951811         1.641078         2.848301
 H        -1.864869         3.944964         0.959570
 H         1.308141         3.674814         3.718281
 H         0.492994         2.255273         3.311873
 H         1.663348         3.942104         1.033024
 H         2.125159         2.305711         1.282746
 H        -0.029766         2.839489        -0.577601
