19
Iteration:  1090
 O         0.261222         0.238867         0.993194
 C        -0.608978         1.307329         0.786894
 C        -2.073206         1.120749         0.528409
 C        -1.638921         1.837255         1.776880
 C        -1.131572         3.310815         1.423837
 O        -0.570947         3.853915         2.675846
 C         0.719938         2.972702         2.791089
 C         1.211992         2.852989         1.300735
 C        -0.044756         2.588725         0.479720
 H        -0.261326        -0.502098         1.243283
 H        -2.520140         2.007222        -0.215228
 H        -2.596316         0.254070         0.727634
 H        -2.079875         1.530089         2.812315
 H        -1.842466         4.169557         1.023414
 H         1.178065         3.691842         3.439320
 H         0.348736         2.011403         3.270974
 H         1.683089         3.882569         1.013591
 H         1.988961         2.077279         1.358425
 H         0.105510         2.977421        -0.625587
