19
Iteration:   301charge 0 multiplicity 1
 O         0.200369         0.085488         0.994746
 C        -0.608366         1.180577         0.875858
 C        -2.110496         1.263787         0.455385
 C        -1.687177         1.740470         1.778512
 C        -1.190030         3.226227         1.565838
 O        -0.495638         3.957895         2.500771
 C         0.646683         3.237327         2.733652
 C         1.334172         2.832544         1.401905
 C        -0.025712         2.619303         0.637576
 H         0.380036        -0.371682         0.201423
 H        -2.433890         1.961474        -0.382265
 H        -2.707187         0.353794         0.476085
 H        -1.986194         1.445847         2.697497
 H        -1.940362         3.863960         1.038015
 H         1.329120         3.685443         3.372900
 H         0.386680         2.270523         3.300372
 H         1.908490         3.693401         0.840379
 H         1.845583         1.807126         1.338899
 H        -0.108740         2.866754        -0.384409
