19
Iteration:  4316charge 0 multiplicity 1
 O         0.151505        -0.027389         0.785991
 C        -0.549807         1.157500         0.781317
 C        -2.040027         1.272753         0.377295
 C        -1.781723         1.808628         1.783046
 C        -1.141395         3.178244         1.569123
 O        -0.513350         3.881520         2.629679
 C         0.789193         3.214330         2.869454
 C         1.205499         3.020354         1.416194
 C        -0.101596         2.590460         0.615330
 H         0.966575         0.029655         1.408125
 H        -2.359179         1.930120        -0.472865
 H        -2.552230         0.297667         0.347141
 H        -2.253864         1.335995         2.704766
 H        -1.872595         3.799218         1.059025
 H         1.351369         3.858362         3.450262
 H         0.629582         2.393049         3.483856
 H         1.618710         3.880207         1.069995
 H         2.092295         2.340840         1.575589
 H        -0.141430         3.023104        -0.419061
