19
Iteration:   789charge 0 multiplicity 1
 O         0.122797         0.040179         1.086040
 C        -0.621273         1.232736         0.951550
 C        -2.074766         1.274429         0.332084
 C        -1.839994         1.812408         1.749632
 C        -1.186776         3.197223         1.500757
 O        -0.529046         3.690794         2.728945
 C         0.842523         3.359271         2.703428
 C         1.326158         2.996424         1.236848
 C         0.040377         2.544849         0.563181
 H        -0.237166        -0.688996         0.639497
 H        -2.231083         1.984761        -0.470399
 H        -2.666426         0.443658         0.232838
 H        -2.575695         1.323613         2.631364
 H        -1.566885         4.129596         1.090150
 H         1.483554         4.175032         3.180571
 H         0.984210         2.454701         3.363959
 H         1.731940         3.888006         0.868976
 H         2.154759         2.234691         1.298693
 H        -0.157477         2.811913        -0.507338
