19
Iteration:  3161charge 0 multiplicity 1
 O         0.148991        -0.004306         0.741418
 C        -0.600309         1.198349         0.761595
 C        -2.053255         1.217063         0.527083
 C        -1.677005         1.796965         1.758617
 C        -1.127597         3.256792         1.480040
 O        -0.499754         3.896590         2.643692
 C         0.654759         3.206549         2.853192
 C         1.205847         2.984678         1.426370
 C        -0.018039         2.595512         0.594723
 H         0.440905        -0.112018         1.659746
 H        -2.519503         1.643321        -0.351906
 H        -2.365712         0.073798         0.661881
 H        -1.998580         1.568519         2.772618
 H        -1.851345         4.076140         0.989854
 H         1.338541         3.688756         3.538208
 H         0.482258         2.253542         3.418544
 H         1.806287         3.770042         0.974380
 H         1.960500         2.182653         1.601280
 H        -0.040759         2.975333        -0.451862
