19
Iteration:   193charge 0 multiplicity 1
 O         0.187935         0.067301         1.158614
 C        -0.616438         1.246586         0.920845
 C        -2.082835         1.153256         0.283629
 C        -1.812169         1.813537         1.667053
 C        -1.214622         3.213115         1.544958
 O        -0.484299         3.821024         2.691020
 C         0.824411         3.145788         2.736949
 C         1.307453         3.010900         1.240000
 C        -0.021581         2.697294         0.567070
 H        -0.353487        -0.731735         1.292620
 H        -2.252469         1.684741        -0.692664
 H        -2.640778         0.269527         0.366279
 H        -2.316865         1.412481         2.455875
 H        -1.774050         4.073479         1.146370
 H         1.504897         3.790972         3.294360
 H         0.667012         2.216868         3.255096
 H         1.847975         3.814482         0.783400
 H         2.066341         2.243148         1.182942
 H        -0.357289         3.116220        -0.388719
