19
Iteration:  2743charge 0 multiplicity 1
 O         0.138015         0.094508         1.059602
 C        -0.591960         1.303195         0.837248
 C        -2.065309         1.258801         0.380291
 C        -1.785462         1.788186         1.744200
 C        -1.212229         3.249349         1.533967
 O        -0.504644         3.730741         2.674689
 C         0.733229         3.044470         2.745151
 C         1.268732         2.995843         1.262071
 C         0.035258         2.628067         0.535990
 H         0.834833         0.385125         1.693120
 H        -2.519913         1.910152        -0.434030
 H        -2.515619         0.121155         0.382945
 H        -2.164486         1.464464         2.732245
 H        -1.906658         4.005887         1.162804
 H         1.274623         3.760008         3.406988
 H         0.607542         2.033185         3.262960
 H         1.612321         4.057799         0.918741
 H         2.158811         2.372040         1.004603
 H         0.148516         2.931287        -0.538327
