19
Iteration:  3645
 O         0.105391         0.076379         0.911909
 C        -0.585831         1.270308         0.834374
 C        -2.092149         1.144501         0.370822
 C        -1.703068         1.798346         1.722156
 C        -1.136942         3.242582         1.567964
 O        -0.537045         3.798020         2.690052
 C         0.768286         3.155837         2.772525
 C         1.282757         3.014973         1.366413
 C        -0.030645         2.659209         0.503866
 H         0.176611         0.024484         1.858780
 H        -2.593122         1.776520        -0.390460
 H        -2.398518         0.030147         0.441114
 H        -2.154286         1.211731         2.587612
 H        -1.843926         4.079155         1.375695
 H         1.463116         3.649226         3.476945
 H         0.670985         2.178926         3.334356
 H         1.650366         4.037823         1.128928
 H         2.051687         2.112973         1.357693
 H         0.107525         2.947307        -0.660172
