19
Iteration:  3733
 O         0.137285         0.062679         0.865966
 C        -0.649324         1.208505         0.768103
 C        -2.115617         1.183302         0.362828
 C        -1.680732         1.808061         1.723300
 C        -1.171512         3.189824         1.508379
 O        -0.522478         3.850451         2.724437
 C         0.807183         3.251799         2.804091
 C         1.225086         2.919774         1.444658
 C        -0.058898         2.610537         0.643717
 H         0.988089         0.372834         1.084370
 H        -2.347453         1.960093        -0.421207
 H        -2.491424         0.116182         0.349300
 H        -2.050958         1.528235         2.724005
 H        -1.921738         3.921127         1.154695
 H         1.507434         4.041037         3.295921
 H         0.710373         2.344253         3.486654
 H         1.767110         3.703336         0.891234
 H         1.827034         1.965809         1.260467
 H         0.146876         2.838493        -0.525154
