19
Iteration:    77charge 0 multiplicity 1
 O         0.103541        -0.062728         0.971962
 C        -0.618130         1.179693         0.785590
 C        -2.165875         1.247553         0.441096
 C        -1.704253         1.782972         1.762541
 C        -1.151715         3.204112         1.564456
 O        -0.593333         3.861137         2.580857
 C         0.716315         3.388341         2.816481
 C         1.350610         2.940812         1.383350
 C         0.136930         2.597896         0.578393
 H         0.460854        -0.311190         0.058237
 H        -2.643630         1.850072        -0.343985
 H        -2.599125         0.346564         0.664716
 H        -2.165203         1.445100         2.623872
 H        -1.851304         3.861648         1.105076
 H         1.256631         4.244493         3.332483
 H         0.713637         2.476751         3.421942
 H         2.038051         3.588569         0.966544
 H         1.959567         2.084176         1.506113
 H         0.151276         3.005511        -0.353680
