19
Iteration:  2041charge 0 multiplicity 1
 O         0.256989         0.161747         0.946569
 C        -0.620411         1.229693         0.792023
 C        -2.054824         1.251317         0.424367
 C        -1.767747         1.786429         1.867064
 C        -1.128689         3.256995         1.522844
 O        -0.522440         3.870800         2.607399
 C         0.746102         3.199037         2.737404
 C         1.244043         2.842644         1.392048
 C        -0.071627         2.561508         0.586075
 H         0.022233        -0.744382         0.528305
 H        -2.508172         1.833814        -0.418561
 H        -2.511973         0.330934         0.356945
 H        -2.205964         1.353486         2.780777
 H        -1.976488         3.843482         1.233872
 H         1.575840         3.836176         3.280645
 H         0.396134         2.280704         3.464451
 H         1.637948         3.740764         0.980787
 H         2.026517         2.094456         1.366534
 H        -0.110162         2.852867        -0.490522
