19
Iteration:  1083charge 0 multiplicity 1
 O         0.283315         0.205603         1.004645
 C        -0.641979         1.301263         0.819318
 C        -2.051454         1.103984         0.517844
 C        -1.660863         1.887023         1.787001
 C        -1.187378         3.375910         1.444510
 O        -0.528329         3.816253         2.634416
 C         0.663340         2.966773         2.759280
 C         1.195343         2.860826         1.355537
 C         0.002242         2.659828         0.471885
 H        -0.313836        -0.565424         1.251654
 H        -2.597980         1.765772        -0.142340
 H        -2.609535         0.159047         0.658403
 H        -1.940622         1.492054         2.713879
 H        -1.842128         4.089736         0.984119
 H         1.341580         3.478780         3.466456
 H         0.571477         1.961900         3.109273
 H         1.597537         3.743788         0.957686
 H         2.057501         2.132975         1.206249
 H         0.086363         2.999902        -0.489423
