19
Iteration:  1978charge 0 multiplicity 1
 O         0.112702         0.067656         0.936123
 C        -0.670265         1.241578         0.898138
 C        -2.041325         1.110395         0.510006
 C        -1.662605         1.865932         1.751131
 C        -1.123177         3.268851         1.448183
 O        -0.535458         3.819739         2.635066
 C         0.738010         3.148334         2.806739
 C         1.231709         2.956827         1.370688
 C         0.017513         2.663593         0.514165
 H        -0.028096        -0.350018         0.045826
 H        -2.393028         1.619706        -0.462721
 H        -2.396439         0.169489         0.778461
 H        -2.116141         1.607322         2.736515
 H        -1.888096         3.954712         1.151428
 H         1.401325         3.738153         3.301526
 H         0.621263         2.293028         3.470663
 H         1.603235         3.938564         1.127726
 H         2.173199         2.301520         1.449061
 H         0.161500         2.929941        -0.517222
