19
Iteration:  1956charge 0 multiplicity 1
 O         0.158486        -0.031814         1.012421
 C        -0.587808         1.201667         0.762567
 C        -2.153634         1.252138         0.470821
 C        -1.741451         1.808421         1.723988
 C        -1.155220         3.210840         1.539070
 O        -0.534819         3.845169         2.595133
 C         0.806177         3.183026         2.793684
 C         1.272446         3.087862         1.329256
 C         0.002755         2.584785         0.648815
 H         0.354746        -0.444219         0.171053
 H        -2.447869         2.051123        -0.342284
 H        -2.620821         0.324998         0.499151
 H        -2.069734         1.591739         2.751931
 H        -1.814837         3.938280         1.079403
 H         1.282925         3.623917         3.559203
 H         0.511573         2.294467         3.254894
 H         1.659443         4.002245         0.916265
 H         2.144285         2.287150         1.374082
 H        -0.042652         2.835399        -0.392056
