19
Iteration:  1025
 O         0.212284         0.126390         1.117037
 C        -0.609637         1.196645         0.878425
 C        -2.065701         1.254588         0.359937
 C        -1.742175         1.864266         1.718275
 C        -1.151661         3.207835         1.519564
 O        -0.534825         3.718521         2.688277
 C         0.845454         3.233070         2.801991
 C         1.252141         2.929713         1.262977
 C        -0.086004         2.606180         0.530548
 H        -0.109966        -0.603901         0.556793
 H        -2.408314         1.953761        -0.557562
 H        -2.746988         0.455012         0.479098
 H        -2.471472         1.420397         2.473912
 H        -1.817239         4.055989         1.053949
 H         1.438145         4.041802         3.195722
 H         1.004714         2.294904         3.330788
 H         1.604973         3.858778         0.745944
 H         1.827397         2.008712         1.281240
 H        -0.207960         2.952971        -0.486036
