19
Iteration:  4777charge 0 multiplicity 1
 O         0.216911         0.139711         0.840402
 C        -0.619251         1.243391         0.882794
 C        -2.028243         1.197976         0.433591
 C        -1.800401         1.801983         1.741923
 C        -1.152346         3.302786         1.499764
 O        -0.527609         3.781147         2.643334
 C         0.648545         3.098034         2.835950
 C         1.286874         2.889172         1.358258
 C        -0.018099         2.712455         0.558065
 H         0.449426        -0.238667         1.704386
 H        -2.494679         1.679723        -0.442426
 H        -2.393217         0.087578         0.532088
 H        -2.170152         1.278246         2.662100
 H        -1.715452         4.132100         1.001785
 H         1.338317         3.790430         3.391170
 H         0.665992         2.184054         3.445146
 H         1.784291         3.812894         1.176535
 H         1.857526         1.916363         1.413688
 H         0.096796         3.144268        -0.549625
