19
Iteration:  3452charge 0 multiplicity 1
 O         0.105649         0.038567         0.818583
 C        -0.586404         1.258760         0.822219
 C        -2.124234         1.176297         0.399060
 C        -1.762565         1.840118         1.736177
 C        -1.123672         3.203990         1.538397
 O        -0.565065         3.758227         2.669458
 C         0.791319         3.265128         2.846030
 C         1.297579         2.935644         1.398499
 C        -0.002458         2.650112         0.608185
 H         0.851331         0.127209         1.515380
 H        -2.704453         1.752910        -0.363564
 H        -2.426564         0.137014         0.501176
 H        -2.126129         1.394424         2.621767
 H        -1.744470         3.878743         0.797891
 H         1.355573         4.190194         3.232725
 H         0.854997         2.326576         3.404216
 H         1.915981         3.819804         1.019519
 H         1.928491         2.090647         1.467319
 H        -0.180605         3.034836        -0.385346
