19
Iteration:  1324
 O         0.227935         0.137975         1.110479
 C        -0.578291         1.241792         0.869650
 C        -2.129382         1.240134         0.373558
 C        -1.784678         1.849029         1.740586
 C        -1.225575         3.248401         1.508197
 O        -0.525416         3.735240         2.661525
 C         0.812710         3.134191         2.745354
 C         1.293949         2.928977         1.251470
 C        -0.041496         2.608038         0.606361
 H         0.366191        -0.593980         0.410432
 H        -2.326189         1.908680        -0.520113
 H        -2.609131         0.225903         0.349303
 H        -2.384699         1.503155         2.676422
 H        -1.859778         4.085805         1.206236
 H         1.346231         3.952341         3.206461
 H         0.691914         2.296335         3.378128
 H         1.583818         3.913428         0.976202
 H         2.175513         2.294001         1.123320
 H        -0.134199         2.900797        -0.483354
