19
Iteration:  4736charge 0 multiplicity 1
 O         0.057771         0.049617         0.948461
 C        -0.580334         1.284986         0.788846
 C        -2.061574         1.163641         0.295748
 C        -1.739288         1.783649         1.733505
 C        -1.100587         3.232345         1.565197
 O        -0.547213         3.765066         2.667293
 C         0.767300         3.178857         2.841064
 C         1.234695         2.985727         1.384701
 C        -0.000807         2.648301         0.580070
 H         0.920133         0.345524         1.384904
 H        -2.298363         1.952409        -0.354096
 H        -2.557466         0.125584         0.354472
 H        -2.161997         1.286639         2.545820
 H        -1.853561         3.946939         1.175041
 H         1.454265         3.874917         3.507644
 H         0.561425         2.220943         3.361558
 H         1.453685         4.083732         1.033953
 H         2.183419         2.275968         1.190373
 H         0.143645         2.981853        -0.515998
