19
Iteration:  1195charge 0 multiplicity 1
 O        -0.019131         0.024455         0.912913
 C        -0.656777         1.211160         0.794987
 C        -2.075239         1.197307         0.440265
 C        -1.619397         1.763783         1.728790
 C        -1.169828         3.172019         1.478054
 O        -0.562240         3.799144         2.684342
 C         0.830318         3.426422         2.764232
 C         1.307702         2.969751         1.426492
 C         0.021123         2.561422         0.640660
 H         0.399056        -0.302425         0.156755
 H        -2.442592         1.839721        -0.334794
 H        -2.574537         0.202557         0.451493
 H        -1.934850         1.169378         2.671911
 H        -1.879700         3.865080         1.107646
 H         1.323168         4.300942         3.283130
 H         1.030348         2.772404         3.562356
 H         1.911412         3.741847         0.870599
 H         1.970212         2.109084         1.518384
 H         0.089857         2.964145        -0.315262
