19
Iteration:  2031charge 0 multiplicity 1
 O         0.306207         0.209436         0.978702
 C        -0.696034         1.191990         0.778853
 C        -2.105589         1.264706         0.425716
 C        -1.679968         1.777036         1.769446
 C        -1.234802         3.230415         1.519428
 O        -0.456592         3.898203         2.589395
 C         0.754516         3.181469         2.851710
 C         1.194321         2.829392         1.342945
 C        -0.066150         2.549270         0.578674
 H         0.073189        -0.667824         0.558931
 H        -2.506295         2.055050        -0.263079
 H        -2.608458         0.406354         0.581611
 H        -1.953667         1.219386         2.688115
 H        -1.963163         3.935379         1.202882
 H         1.334049         3.917762         3.421964
 H         0.540636         2.193347         3.510809
 H         1.657212         3.661533         0.884291
 H         1.896382         1.975433         1.380173
 H         0.201023         2.765357        -0.450718
