19
Iteration:  3355
 O         0.159600         0.112527         0.934077
 C        -0.626846         1.222787         0.796906
 C        -2.095334         1.087339         0.421582
 C        -1.784858         1.875747         1.659401
 C        -1.200114         3.324645         1.451428
 O        -0.493270         3.717832         2.711137
 C         0.820544         3.126266         2.846368
 C         1.249618         2.961098         1.435306
 C        -0.083382         2.648024         0.524336
 H         1.072364         0.415232         1.252704
 H        -2.466246         1.658738        -0.499162
 H        -2.619744         0.203958         0.651310
 H        -2.038987         1.694772         2.627559
 H        -1.854781         4.107321         1.222995
 H         1.471909         3.940556         3.311544
 H         0.651652         2.169314         3.300144
 H         1.870094         3.910338         1.148177
 H         2.045559         2.185253         1.383371
 H         0.097919         2.936747        -0.541441
