19
Iteration:   777
 O         0.122008         0.024221         1.079331
 C        -0.688495         1.162607         0.931631
 C        -2.023243         1.277410         0.347131
 C        -1.800539         1.891761         1.690702
 C        -1.108787         3.241852         1.509630
 O        -0.529725         3.635219         2.669709
 C         0.879653         3.335854         2.768492
 C         1.264216         3.034670         1.270485
 C        -0.037623         2.543210         0.637485
 H        -0.260843        -0.588256         0.396872
 H        -2.139538         1.888847        -0.506800
 H        -2.593288         0.350842         0.358664
 H        -2.238704         1.716735         2.768129
 H        -1.849443         3.906555         1.095205
 H         1.285341         4.354383         3.029425
 H         1.092748         2.567134         3.518520
 H         1.504645         3.889341         0.697819
 H         2.059116         2.242588         1.099602
 H         0.095714         2.729872        -0.489391
