19
Iteration:  1879
 O         0.218120         0.199938         1.037949
 C        -0.703764         1.293154         0.811133
 C        -2.116225         1.194386         0.424632
 C        -1.804000         1.855856         1.677699
 C        -1.111477         3.181672         1.434784
 O        -0.528263         3.659272         2.735204
 C         0.884006         3.301592         2.769704
 C         1.211656         2.893955         1.406955
 C        -0.044118         2.561915         0.584278
 H         0.135933        -0.452681         0.346366
 H        -2.359337         1.627267        -0.603839
 H        -2.559423         0.091021         0.401695
 H        -2.056218         1.613303         2.646480
 H        -1.648136         4.008745         0.979962
 H         1.293827         4.154760         3.205048
 H         0.939717         2.475501         3.480439
 H         1.607341         3.784690         0.857590
 H         2.014863         2.031199         1.219346
 H         0.053409         2.994037        -0.395212
