19
Iteration:  1604charge 0 multiplicity 1
 O         0.169211         0.128034         1.107463
 C        -0.699682         1.216972         0.798454
 C        -2.163914         1.098996         0.353332
 C        -1.715999         1.798109         1.673527
 C        -1.129260         3.252024         1.468469
 O        -0.495175         3.814054         2.653820
 C         0.850625         3.157853         2.791587
 C         1.239163         2.974777         1.342645
 C        -0.026995         2.682836         0.621767
 H         0.719209        -0.044085         0.371922
 H        -2.810959         1.557223        -0.489142
 H        -2.367706         0.118805         0.662842
 H        -2.245606         1.474128         2.572875
 H        -1.832287         4.017875         1.235695
 H         1.358104         3.958597         3.383265
 H         0.743588         2.139089         3.453713
 H         1.802209         3.757069         0.927973
 H         1.973691         2.128894         1.270154
 H        -0.118294         3.107789        -0.355152
