19
Iteration:  2638
 O         0.145587         0.047680         0.774374
 C        -0.639937         1.183985         0.830200
 C        -2.084182         1.267821         0.466984
 C        -1.586080         1.737142         1.838385
 C        -1.074321         3.180267         1.550191
 O        -0.528290         3.929255         2.591317
 C         0.659000         3.306423         2.820383
 C         1.244371         2.928521         1.363465
 C         0.015721         2.575165         0.581331
 H        -0.112753        -0.639384         1.360903
 H        -2.476262         1.927373        -0.195702
 H        -2.555457         0.234271         0.463868
 H        -2.127925         1.308874         2.722668
 H        -1.951122         3.753553         1.176883
 H         1.162576         3.882204         3.697118
 H         0.361885         2.346762         3.434052
 H         1.777301         3.810555         0.979131
 H         1.848059         2.049663         1.321602
 H         0.043845         3.015082        -0.427233
