19
Iteration:   218
 O         0.143203         0.079945         1.140560
 C        -0.638436         1.211594         0.894453
 C        -1.998830         1.263037         0.242779
 C        -1.810692         1.855488         1.719477
 C        -1.144557         3.238112         1.553625
 O        -0.494995         3.736307         2.644308
 C         0.882033         3.259292         2.712583
 C         1.163145         2.974685         1.318335
 C        -0.038539         2.531222         0.640840
 H        -0.219271        -0.828938         0.833659
 H        -2.198307         1.805173        -0.644574
 H        -2.509918         0.298819         0.357530
 H        -2.148311         1.282655         2.651661
 H        -1.579498         4.119292         1.115508
 H         1.507768         4.118705         3.136110
 H         0.835150         2.409785         3.354281
 H         1.300292         3.889588         0.815429
 H         2.040363         2.426209         1.105016
 H        -0.113513         2.881910        -0.449862
