19
Iteration:  4925
 O         0.133488         0.034533         0.893727
 C        -0.569476         1.329104         0.785345
 C        -2.046224         1.213847         0.324150
 C        -1.719292         1.824684         1.689907
 C        -1.199333         3.178794         1.600514
 O        -0.538372         3.789328         2.633918
 C         0.743613         3.200668         2.806355
 C         1.270915         2.867250         1.400806
 C        -0.030494         2.714477         0.638937
 H         0.476567        -0.003648         1.772196
 H        -2.293471         1.816106        -0.469874
 H        -2.396621         0.184141         0.490161
 H        -1.979979         1.286691         2.704217
 H        -1.985549         3.820476         1.274193
 H         1.312798         3.930964         3.274430
 H         0.670107         2.288028         3.438032
 H         1.740383         3.703291         0.871356
 H         1.966016         2.056180         1.364994
 H        -0.176787         3.255083        -0.315247
