19
Iteration:  2859
 O         0.053377        -0.073229         0.801449
 C        -0.648871         1.187261         0.815863
 C        -2.086217         1.161584         0.340733
 C        -1.756275         1.752612         1.748151
 C        -1.207633         3.227926         1.553531
 O        -0.511196         3.901151         2.655390
 C         0.839869         3.327145         2.875944
 C         1.315218         2.972231         1.437621
 C        -0.023200         2.663501         0.612730
 H         0.901056        -0.298549         1.209155
 H        -2.364252         1.553726        -0.539561
 H        -2.487146         0.148568         0.473275
 H        -2.061978         1.304963         2.727690
 H        -1.884236         4.043898         1.097321
 H         1.341417         4.211667         3.227021
 H         1.029470         2.505596         3.559532
 H         1.645475         3.902672         1.095751
 H         2.235133         2.345861         1.431368
 H         0.019192         2.990130        -0.404261
