19
Iteration:  2919charge 0 multiplicity 1
 O         0.109618         0.012841         0.815417
 C        -0.559710         1.227008         0.747607
 C        -2.031906         1.189916         0.442011
 C        -1.671388         1.819515         1.846771
 C        -1.181349         3.222483         1.542273
 O        -0.474604         3.885605         2.581171
 C         0.706476         3.182064         2.862530
 C         1.217338         2.919997         1.422011
 C        -0.063506         2.655904         0.562740
 H         0.652011         0.034627         1.665766
 H        -2.692868         1.815414        -0.360507
 H        -2.166153         0.154181         0.557706
 H        -2.148424         1.290822         2.626203
 H        -1.708440         4.020201         1.121261
 H         1.290010         3.928501         3.468480
 H         0.372339         2.281945         3.436997
 H         1.687782         3.760574         0.828797
 H         1.831593         2.035617         1.461256
 H        -0.015469         3.165380        -0.465243
