19
Iteration:  3004
 O         0.038186         0.010684         0.967361
 C        -0.616515         1.240867         0.801344
 C        -2.015203         1.157089         0.331298
 C        -1.776068         1.810146         1.680627
 C        -1.125508         3.124467         1.640300
 O        -0.475394         3.819183         2.656563
 C         0.766815         3.172373         2.770363
 C         1.281661         3.137904         1.308954
 C        -0.019707         2.633368         0.646522
 H         0.448139        -0.084494         1.818344
 H        -2.447638         1.773354        -0.559267
 H        -2.488992         0.210011         0.467927
 H        -2.196643         1.468588         2.589660
 H        -1.848154         3.907394         1.079397
 H         1.459545         3.734417         3.414001
 H         0.735388         2.115610         3.095281
 H         1.612127         4.160416         0.923348
 H         2.085202         2.403395         1.180174
 H        -0.057778         3.180179        -0.339021
