19
Iteration:  3237charge 0 multiplicity 1
 O         0.085227        -0.004498         0.875081
 C        -0.652070         1.215722         0.842143
 C        -2.036837         1.245796         0.272824
 C        -1.820250         1.753140         1.757270
 C        -1.190334         3.196886         1.579228
 O        -0.538437         3.738952         2.720223
 C         0.865886         3.424638         2.774566
 C         1.245322         2.969124         1.393389
 C         0.024248         2.577028         0.636556
 H         0.993364         0.102115         1.257937
 H        -2.357712         1.946739        -0.520086
 H        -2.434675         0.192786         0.141699
 H        -2.223668         1.474533         2.674594
 H        -1.814242         4.131789         1.186044
 H         1.336481         4.272158         3.280653
 H         0.973234         2.498558         3.383114
 H         1.850666         3.652408         0.789150
 H         1.968946         2.128899         1.508295
 H        -0.028037         2.718878        -0.489659
