19
Iteration:   707charge 0 multiplicity 1
 O         0.201515         0.084624         1.107417
 C        -0.629266         1.234141         0.837543
 C        -2.087855         1.275571         0.395204
 C        -1.646118         1.837292         1.805402
 C        -1.171934         3.228890         1.556553
 O        -0.503050         3.877262         2.588360
 C         0.749093         3.167585         2.799710
 C         1.193550         2.823740         1.306712
 C        -0.067004         2.573203         0.489138
 H         0.495192        -0.288777         0.281372
 H        -2.310006         2.058973        -0.456998
 H        -2.639366         0.339015         0.400365
 H        -1.884243         1.478871         2.784631
 H        -1.922350         3.915145         1.141645
 H         1.464706         3.792523         3.297490
 H         0.420757         2.266182         3.319879
 H         1.653994         3.872728         1.129546
 H         1.939176         2.059957         1.126174
 H        -0.223152         2.896786        -0.624121
