19
Iteration:  3875charge 0 multiplicity 1
 O         0.173526         0.152799         0.909544
 C        -0.688472         1.291073         0.795059
 C        -2.097430         1.088173         0.424219
 C        -1.754685         1.891107         1.771312
 C        -1.107058         3.221871         1.520610
 O        -0.513898         3.777834         2.698210
 C         0.770414         3.092397         2.812391
 C         1.243056         2.948308         1.354138
 C        -0.017614         2.648725         0.504616
 H         0.854887         0.233999         1.532772
 H        -2.556251         1.788319        -0.464417
 H        -2.399787         0.115244         0.688113
 H        -2.408437         1.395872         2.428703
 H        -1.901141         3.869994         1.054814
 H         1.464181         3.635250         3.563580
 H         0.663871         2.075210         3.222506
 H         1.566304         3.968167         1.151386
 H         2.091731         2.253388         1.163880
 H         0.143541         3.060726        -0.449813
