19
Iteration:    15
 O         0.078101        -0.023342         1.029203
 C        -0.643598         1.147818         0.844406
 C        -2.079689         1.217550         0.355543
 C        -1.723352         1.743200         1.802403
 C        -1.128471         3.173246         1.466747
 O        -0.574475         3.909431         2.623442
 C         0.835444         3.289617         2.734149
 C         1.261395         3.008029         1.379768
 C         0.017312         2.610201         0.704928
 H         0.676825        -0.099001         0.196885
 H        -2.125311         2.156134        -0.377056
 H        -2.813803         0.501143         0.167393
 H        -2.101104         1.391571         2.693080
 H        -1.748891         3.857172         0.785819
 H         1.375096         3.938645         3.350008
 H         0.724705         2.315321         3.361876
 H         1.810722         3.902033         0.809251
 H         1.844273         2.002959         1.429062
 H         0.078721         3.041822        -0.495688
