19
Iteration:  4270
 O         0.083858         0.099278         0.826992
 C        -0.577130         1.325787         0.788034
 C        -2.060352         1.144412         0.460012
 C        -1.704095         1.791288         1.808894
 C        -1.138290         3.164085         1.480326
 O        -0.574584         3.776347         2.639941
 C         0.715705         3.162579         2.823767
 C         1.259569         2.927278         1.380742
 C         0.035920         2.734231         0.584748
 H         0.714285         0.070670         1.593338
 H        -2.508803         1.768373        -0.320743
 H        -2.250567         0.167822         0.587125
 H        -2.121130         1.331603         2.791060
 H        -1.875682         3.934496         1.123191
 H         1.250313         3.888997         3.400291
 H         0.546895         2.392946         3.521722
 H         1.904793         3.799996         1.148152
 H         1.895215         2.009560         1.078042
 H         0.168166         3.094490        -0.513387
