19
Iteration:  1797charge 0 multiplicity 1
 O         0.185161         0.095982         1.029034
 C        -0.633229         1.219049         0.812164
 C        -2.120796         1.202032         0.451045
 C        -1.680446         1.817742         1.753697
 C        -1.110649         3.248078         1.471056
 O        -0.576208         3.794681         2.648489
 C         0.707774         3.150598         2.727065
 C         1.254252         2.981915         1.382159
 C         0.011094         2.605665         0.582199
 H         0.430650        -0.283574         0.187041
 H        -2.512189         1.991118        -0.139520
 H        -2.557149         0.320239         0.598558
 H        -2.105901         1.521019         2.713563
 H        -1.825058         3.882165         0.928965
 H         1.359004         3.779473         3.423517
 H         0.798826         2.130381         3.129462
 H         1.752324         3.946915         1.076803
 H         1.918400         2.184268         1.350693
 H         0.113597         3.041162        -0.449744
