19
Iteration:  1527charge 0 multiplicity 1
 O         0.132151         0.109651         1.042978
 C        -0.624771         1.234377         0.855111
 C        -2.012441         1.186885         0.271832
 C        -1.717884         1.757897         1.700746
 C        -1.184916         3.189802         1.592168
 O        -0.488591         3.858730         2.681225
 C         0.870679         3.245087         2.757497
 C         1.194066         2.979359         1.330829
 C        -0.030487         2.571039         0.615483
 H        -0.408281        -0.678865         0.662210
 H        -2.582238         1.586439        -0.601418
 H        -2.561870         0.207084         0.549859
 H        -2.377375         1.359682         2.559194
 H        -1.766231         4.034494         1.222164
 H         1.414465         4.003926         3.414665
 H         0.717734         2.310027         3.358674
 H         1.452484         3.953213         0.930164
 H         2.134846         2.369954         1.062631
 H         0.010252         2.856044        -0.415837
