19
Iteration:  2545
 O         0.071215         0.053994         1.106392
 C        -0.613377         1.213820         0.767981
 C        -2.029683         1.185051         0.388331
 C        -1.716647         1.689798         1.781634
 C        -1.168085         3.233943         1.577527
 O        -0.503829         3.891724         2.664563
 C         0.819904         3.162327         2.717378
 C         1.241421         2.988462         1.287177
 C        -0.068879         2.699196         0.579056
 H         0.789051        -0.036737         0.389119
 H        -2.450784         1.842884        -0.447128
 H        -2.494150         0.233350         0.366425
 H        -2.192796         1.225271         2.709913
 H        -1.840107         4.066122         1.201479
 H         1.467595         3.734576         3.289416
 H         0.723626         2.235731         3.228675
 H         1.619778         3.897158         0.833768
 H         1.957316         2.096425         1.198279
 H         0.016030         2.969879        -0.476822
