19
Iteration:  4106
 O         0.132492         0.021431         0.901527
 C        -0.608354         1.245688         0.798063
 C        -2.084242         1.196170         0.317588
 C        -1.736008         1.782072         1.778337
 C        -1.185370         3.243402         1.539966
 O        -0.509092         3.830226         2.702999
 C         0.799858         3.174871         2.848244
 C         1.195849         2.938487         1.362911
 C        -0.031393         2.670718         0.574448
 H         0.929755         0.347372         1.299062
 H        -2.459419         1.889459        -0.509468
 H        -2.409752         0.056674         0.422339
 H        -2.105447         1.271293         2.607480
 H        -1.922493         3.781561         0.888002
 H         1.477955         3.950816         3.407557
 H         0.829112         2.271419         3.541154
 H         1.669129         3.823035         1.076665
 H         1.979595         2.192595         1.118929
 H         0.080164         3.234353        -0.352376
