19
Iteration:   506charge 0 multiplicity 1
 O         0.157838         0.087503         1.081286
 C        -0.651984         1.184656         0.886833
 C        -2.018423         1.164886         0.321920
 C        -1.751800         1.819574         1.737969
 C        -1.188507         3.214738         1.561093
 O        -0.406104         3.988158         2.574877
 C         0.786676         3.126673         2.787165
 C         1.183529         2.869388         1.332486
 C        -0.121777         2.609521         0.608265
 H         0.830114         0.092640         0.413992
 H        -2.312906         1.814165        -0.476094
 H        -2.600833         0.169042         0.411355
 H        -2.132651         1.443465         2.579223
 H        -1.938442         3.952680         1.249321
 H         1.604166         3.514621         3.389010
 H         0.431001         2.234657         3.318306
 H         1.428230         3.865480         1.058543
 H         2.016692         2.210079         0.976666
 H         0.048173         3.087726        -0.433349
