19
Iteration:   391charge 0 multiplicity 1
 O         0.211285         0.066376         0.997026
 C        -0.619317         1.167553         0.886397
 C        -2.007278         1.321411         0.388991
 C        -1.698960         1.808620         1.776712
 C        -1.162488         3.219021         1.506476
 O        -0.570945         3.893809         2.610373
 C         0.820439         3.199224         2.760357
 C         1.193766         2.875176         1.315994
 C        -0.067743         2.574565         0.605619
 H        -0.202887        -0.778135         0.856166
 H        -2.238561         1.967282        -0.416369
 H        -2.571448         0.322462         0.421703
 H        -2.318822         1.490779         2.707287
 H        -1.812982         3.969944         1.004536
 H         1.517807         3.918407         3.249372
 H         0.598290         2.447436         3.501796
 H         1.620443         3.880511         1.083077
 H         1.934615         2.104076         1.223415
 H        -0.014662         2.795974        -0.427343
