19
Iteration:  4241charge 0 multiplicity 1
 O         0.229653         0.067709         0.847046
 C        -0.639893         1.211096         0.764339
 C        -2.070297         1.177410         0.402288
 C        -1.788181         1.886046         1.785268
 C        -1.132272         3.247950         1.519359
 O        -0.515178         3.832332         2.719270
 C         0.766169         3.152466         2.805208
 C         1.170682         2.989734         1.379700
 C        -0.030056         2.582715         0.567583
 H         0.897080         0.313907         1.447917
 H        -2.492277         1.713371        -0.576087
 H        -2.565767         0.131783         0.528829
 H        -2.036974         1.267611         2.709546
 H        -1.784984         4.018587         1.158711
 H         1.345839         3.727584         3.495681
 H         0.458169         2.208958         3.399078
 H         1.753973         3.790400         1.072370
 H         1.736601         2.110615         1.256294
 H         0.195285         2.815304        -0.436361
