19
Iteration:   169
 O         0.213968         0.210875         1.108479
 C        -0.632620         1.268613         0.800715
 C        -2.061223         1.152842         0.438719
 C        -1.717278         1.923032         1.726369
 C        -1.204057         3.259473         1.391966
 O        -0.505128         3.718137         2.664649
 C         0.768259         3.065169         2.781249
 C         1.218047         2.964781         1.322890
 C        -0.008316         2.595820         0.533666
 H        -0.250848        -0.508233         1.482047
 H        -2.471971         1.721476        -0.429335
 H        -2.527232         0.118609         0.532914
 H        -2.216371         1.666567         2.681523
 H        -1.813440         4.150366         1.051888
 H         1.394558         3.684431         3.386369
 H         0.627700         2.084277         3.286221
 H         1.657807         3.829553         0.759394
 H         2.122363         2.279957         1.273412
 H         0.041197         2.822017        -0.532355
