19
Iteration:  1293
 O         0.184644         0.134537         1.073424
 C        -0.610682         1.319993         0.820115
 C        -2.088782         1.031267         0.464084
 C        -1.759986         1.866593         1.674190
 C        -1.170022         3.340350         1.491453
 O        -0.496013         3.798862         2.719095
 C         0.705419         3.031614         2.741878
 C         1.276504         2.958040         1.284899
 C         0.013038         2.704705         0.520046
 H        -0.118427        -0.621110         0.634544
 H        -2.569295         1.402019        -0.532120
 H        -2.329369        -0.018426         0.757652
 H        -2.157885         1.553525         2.750094
 H        -1.762325         4.174270         1.169299
 H         1.464201         3.647678         3.420112
 H         0.507909         2.095718         3.260591
 H         1.723588         3.963024         1.005619
 H         2.119718         2.305130         1.204172
 H        -0.025491         3.005488        -0.498692
