19
Iteration:   612
 O         0.192599         0.131919         0.906484
 C        -0.607947         1.194919         0.962808
 C        -2.062919         1.295283         0.340914
 C        -1.707964         1.734938         1.795026
 C        -1.201268         3.171967         1.592236
 O        -0.499534         3.862406         2.508777
 C         0.802416         3.256540         2.794245
 C         1.213616         2.907734         1.371372
 C        -0.054586         2.533859         0.634242
 H        -0.381867        -0.603033         0.978071
 H        -2.170405         1.990846        -0.427594
 H        -2.716807         0.457271         0.344832
 H        -2.156630         1.520669         2.679185
 H        -1.771599         3.968370         1.135838
 H         1.420167         4.141671         3.158421
 H         0.695779         2.385833         3.436073
 H         1.689575         3.682845         0.825808
 H         1.945724         2.077070         1.507189
 H         0.039355         2.793345        -0.366867
