19
Iteration:   121charge 0 multiplicity 1
 O         0.266640         0.139128         0.972113
 C        -0.610372         1.226319         0.823280
 C        -2.032038         1.115306         0.465381
 C        -1.751225         1.857598         1.759947
 C        -1.222978         3.254913         1.523322
 O        -0.473048         4.001627         2.582014
 C         0.699151         3.095220         2.759279
 C         1.274658         2.824345         1.402941
 C        -0.062192         2.666773         0.542081
 H        -0.273683        -0.702218         0.852213
 H        -2.401196         1.588457        -0.453873
 H        -2.511343         0.214643         0.717978
 H        -2.305375         1.510235         2.606861
 H        -2.008430         3.882827         1.166964
 H         1.355210         3.623648         3.487078
 H         0.252005         2.228059         3.238457
 H         1.983155         3.534925         1.054320
 H         1.908326         1.948426         1.423351
 H         0.027785         2.914131        -0.469333
