19
Iteration:  3692
 O         0.116973         0.111087         0.859144
 C        -0.617855         1.242137         0.882450
 C        -2.044218         1.173299         0.359226
 C        -1.669982         1.815388         1.842313
 C        -1.212163         3.247302         1.411500
 O        -0.492956         3.843178         2.703374
 C         0.710662         3.096530         2.777904
 C         1.207752         2.930392         1.345067
 C        -0.004677         2.617912         0.620749
 H         0.977909         0.430386         1.306059
 H        -2.445578         1.769846        -0.452045
 H        -2.388903         0.200314         0.410486
 H        -2.082223         1.572489         2.785723
 H        -1.908290         3.994957         0.997178
 H         1.409236         3.607946         3.492513
 H         0.569760         2.097597         3.249627
 H         1.664120         3.893296         1.002288
 H         2.032661         2.159643         1.584357
 H         0.001559         2.993986        -0.444198
