19
Iteration:  1242
 O         0.222572         0.121566         1.008462
 C        -0.699572         1.275122         0.855909
 C        -2.056787         1.211527         0.389805
 C        -1.698384         1.780170         1.800116
 C        -1.217761         3.223376         1.549703
 O        -0.546193         3.900301         2.578180
 C         0.812171         3.156113         2.765357
 C         1.270336         2.864394         1.362509
 C        -0.062220         2.595029         0.606369
 H         0.566567        -0.217589         0.157801
 H        -2.371402         1.903921        -0.393618
 H        -2.595596         0.338060         0.447616
 H        -2.084813         1.488101         2.743551
 H        -1.964045         3.903605         1.084647
 H         1.397649         3.594603         3.554969
 H         0.589820         2.240255         3.361256
 H         1.755047         3.762674         0.829543
 H         1.952646         2.045563         1.180273
 H         0.012239         2.793486        -0.496096
