19
Iteration:   826charge 0 multiplicity 1
 O         0.177744         0.112169         1.063624
 C        -0.677624         1.207779         0.836513
 C        -2.027103         1.127210         0.367035
 C        -1.709174         1.847494         1.731887
 C        -1.125163         3.271153         1.534535
 O        -0.411730         3.848266         2.637384
 C         0.796001         3.181901         2.818414
 C         1.192237         2.882514         1.372145
 C        -0.140813         2.669802         0.482038
 H        -0.464038        -0.630192         0.928100
 H        -2.391378         1.810994        -0.430075
 H        -2.630024         0.137725         0.400130
 H        -2.160864         1.261162         2.512582
 H        -1.898151         3.968906         1.073979
 H         1.553847         3.864029         3.217632
 H         0.741280         2.271596         3.567626
 H         1.595188         3.897187         0.933964
 H         2.046758         2.276846         1.203258
 H        -0.087552         2.990973        -0.521927
