19
Iteration:  3363
 O         0.116336         0.099625         0.933363
 C        -0.642141         1.300147         0.780126
 C        -2.072206         1.118419         0.422293
 C        -1.801044         1.879403         1.696678
 C        -1.188979         3.152834         1.395273
 O        -0.484116         3.722110         2.722052
 C         0.798783         3.142042         2.871201
 C         1.287186         2.980601         1.399892
 C        -0.057398         2.673340         0.543831
 H         1.020592         0.298211         1.345634
 H        -2.486036         1.755503        -0.332757
 H        -2.389504         0.050742         0.566796
 H        -2.179196         1.665545         2.699164
 H        -1.562453         4.149437         0.965850
 H         1.518466         3.887884         3.383204
 H         0.715524         2.234681         3.457185
 H         1.562080         3.957321         0.957185
 H         2.089378         2.279308         1.413632
 H        -0.048779         3.069991        -0.450426
