19
Iteration:    62charge 0 multiplicity 1
 O        -0.015484        -0.111248         0.927310
 C        -0.630727         1.179142         0.845134
 C        -2.108519         1.193487         0.390424
 C        -1.648848         1.750442         1.728980
 C        -1.095984         3.188620         1.452726
 O        -0.585003         3.897382         2.656100
 C         0.792594         3.455696         2.794674
 C         1.356653         2.972450         1.437316
 C        -0.030866         2.611298         0.672385
 H         0.628731        -0.132599         0.256508
 H        -2.458551         1.927404        -0.317892
 H        -2.460790         0.093477         0.262661
 H        -1.898072         1.366599         2.786277
 H        -1.776473         3.898722         0.916137
 H         1.432921         4.250420         3.325257
 H         0.852405         2.518619         3.433150
 H         1.859863         3.769284         0.828934
 H         2.031302         2.089442         1.611009
 H         0.027375         2.888944        -0.483955
