19
Iteration:   366
 O         0.122600         0.126122         0.957185
 C        -0.657169         1.230243         0.790546
 C        -2.129557         1.127850         0.469760
 C        -1.707303         1.815254         1.777675
 C        -1.160939         3.203332         1.460130
 O        -0.515626         3.852183         2.585886
 C         0.780631         3.247435         2.813906
 C         1.312793         2.946970         1.387433
 C         0.032421         2.616873         0.555030
 H        -0.386591        -0.713271         0.813422
 H        -2.541564         1.648821        -0.429755
 H        -2.448578         0.065637         0.645971
 H        -1.825463         1.499708         2.722235
 H        -1.758677         4.020414         1.044020
 H         1.340843         3.867461         3.446170
 H         0.516419         2.361025         3.486153
 H         1.948465         3.887425         1.207907
 H         1.907291         2.020353         1.618284
 H         0.140847         2.906765        -0.495705
