19
Iteration:   350charge 0 multiplicity 1
 O         0.197682         0.029824         0.937363
 C        -0.657742         1.204232         0.753607
 C        -2.159451         1.076268         0.535265
 C        -1.704897         1.877153         1.738031
 C        -1.086020         3.292782         1.443169
 O        -0.606074         3.944191         2.620424
 C         0.750023         3.193595         2.808523
 C         1.371530         2.906369         1.449556
 C         0.027955         2.687815         0.576735
 H        -0.279298        -0.794382         0.530818
 H        -2.829562         1.498780        -0.229793
 H        -2.533226         0.098579         0.776624
 H        -2.258232         1.483359         2.748575
 H        -1.849088         3.925874         0.951935
 H         1.388978         3.902559         3.478215
 H         0.692233         2.222630         3.245574
 H         1.906938         3.593821         0.886395
 H         1.939062         2.002359         1.320770
 H         0.118772         3.100003        -0.484629
