19
Iteration:  2176charge 0 multiplicity 1
 O         0.201479         0.184474         1.073618
 C        -0.632851         1.295122         0.805014
 C        -2.175329         1.159653         0.430181
 C        -1.725881         1.845254         1.763952
 C        -1.145383         3.250608         1.443990
 O        -0.535711         3.740629         2.619131
 C         0.804934         3.101419         2.855007
 C         1.272543         2.943977         1.321530
 C        -0.051301         2.650171         0.576322
 H         0.731087        -0.032646         0.274372
 H        -2.696538         1.514874        -0.432858
 H        -2.438067         0.011233         0.615878
 H        -2.145320         1.450840         2.626336
 H        -1.861397         3.911797         1.019728
 H         1.472386         3.790280         3.289903
 H         0.743452         2.037917         3.183254
 H         1.666646         3.844331         0.838799
 H         2.062189         2.152901         1.401746
 H        -0.095374         3.033235        -0.437464
