19
Iteration:  4250
 O         0.202223         0.080282         0.829515
 C        -0.652496         1.219029         0.792969
 C        -2.079927         1.143185         0.431998
 C        -1.676865         1.871780         1.702502
 C        -1.200838         3.272642         1.516589
 O        -0.545266         3.809977         2.684229
 C         0.755725         3.151160         2.833309
 C         1.236410         2.932168         1.417899
 C        -0.053307         2.612486         0.561693
 H         0.813337         0.254381         1.520893
 H        -2.420629         1.827382        -0.429265
 H        -2.490174         0.193943         0.692068
 H        -2.040610         1.489680         2.765539
 H        -1.791353         4.122158         1.163164
 H         1.350390         3.795879         3.433417
 H         0.719379         2.148112         3.360358
 H         1.694019         3.743398         1.021476
 H         2.047719         2.190214         1.447902
 H        -0.088317         3.024086        -0.480851
