19
Iteration:  4697
 O         0.091934         0.014683         0.896072
 C        -0.607312         1.204102         0.856361
 C        -1.991952         1.224257         0.292366
 C        -1.735453         1.843310         1.717538
 C        -1.208601         3.211181         1.604973
 O        -0.565198         3.798509         2.721252
 C         0.787440         3.208003         2.827508
 C         1.226895         2.973440         1.327955
 C         0.032170         2.602013         0.595209
 H         0.955436        -0.057925         1.368767
 H        -2.192880         1.998773        -0.499082
 H        -2.501500         0.215395         0.172787
 H        -2.309316         1.524982         2.666957
 H        -1.756250         4.043740         1.137067
 H         1.296322         4.015250         3.318847
 H         0.762380         2.268453         3.370309
 H         1.483133         3.881228         0.849901
 H         2.046596         2.401260         1.310459
 H        -0.002300         2.960487        -0.427858
