19
Iteration:  3160charge 0 multiplicity 1
 O         0.150710        -0.002441         0.739400
 C        -0.596204         1.197287         0.767378
 C        -2.060854         1.222370         0.533207
 C        -1.673534         1.790295         1.752246
 C        -1.128700         3.265172         1.477411
 O        -0.495143         3.901941         2.644958
 C         0.638793         3.205247         2.855749
 C         1.204463         2.984354         1.427815
 C        -0.017889         2.587641         0.591441
 H         0.457771        -0.141468         1.677659
 H        -2.492504         1.640916        -0.376411
 H        -2.390385         0.074345         0.675787
 H        -1.981331         1.513635         2.791571
 H        -1.854632         4.111195         0.985275
 H         1.376488         3.664265         3.537483
 H         0.515092         2.227446         3.392361
 H         1.829640         3.819502         0.985613
 H         1.963874         2.186372         1.603667
 H        -0.053505         2.951517        -0.491534
