19
Iteration:  2383charge 0 multiplicity 1
 O         0.038828         0.002074         0.830428
 C        -0.665577         1.252089         0.754396
 C        -2.070168         1.117031         0.511675
 C        -1.635751         1.807789         1.802964
 C        -1.119721         3.235999         1.482564
 O        -0.558334         3.938252         2.580880
 C         0.708609         3.163650         2.849462
 C         1.286852         2.982228         1.397223
 C         0.021500         2.580113         0.607730
 H         0.941212         0.214480         1.071492
 H        -2.676444         1.574826        -0.257785
 H        -2.195756         0.133681         0.752688
 H        -1.687414         1.281863         2.843723
 H        -1.837417         4.019848         1.036472
 H         1.350015         3.863931         3.575363
 H         0.447453         2.231232         3.195272
 H         1.587612         3.995467         1.122323
 H         2.095121         2.228007         1.293492
 H         0.222473         3.208461        -0.288509
