19
Iteration:  3894
 O         0.135094         0.063693         0.919105
 C        -0.587718         1.302309         0.830565
 C        -2.039059         1.189009         0.401951
 C        -1.683354         1.825568         1.731071
 C        -1.212177         3.270607         1.546416
 O        -0.491108         3.769016         2.665476
 C         0.705608         3.061449         2.768040
 C         1.232998         2.986379         1.310938
 C        -0.051830         2.657368         0.614048
 H         0.654757         0.017834         1.697290
 H        -2.328498         1.944481        -0.413074
 H        -2.366120         0.192428         0.311369
 H        -1.841357         1.559018         2.868653
 H        -1.972386         4.019846         1.187072
 H         1.384030         3.683213         3.415840
 H         0.519726         2.103226         3.236222
 H         1.703488         3.912545         0.907126
 H         1.955406         2.231331         1.236862
 H        -0.135583         2.963539        -0.434473
