19
Iteration:   639
 O         0.228084         0.062677         0.976676
 C        -0.613053         1.228684         0.755493
 C        -2.162091         1.185912         0.498106
 C        -1.688761         1.845964         1.741184
 C        -1.084615         3.232147         1.507935
 O        -0.552965         3.886191         2.648547
 C         0.692249         3.224872         2.816283
 C         1.254288         2.882965         1.352859
 C         0.009094         2.628218         0.515483
 H        -0.369119        -0.664384         0.819344
 H        -2.747011         1.701222        -0.347161
 H        -2.515157         0.159836         0.686702
 H        -1.803091         1.543246         2.869309
 H        -1.669312         4.044312         0.998955
 H         1.326092         3.852408         3.398728
 H         0.524398         2.211206         3.275137
 H         1.919345         3.598094         0.781495
 H         1.855705         2.008812         1.598767
 H         0.049313         3.090613        -0.526593
