19
Iteration:  4647charge 0 multiplicity 1
 O         0.125479         0.107751         0.863116
 C        -0.641598         1.252902         0.741354
 C        -2.049638         1.192894         0.406568
 C        -1.635750         1.787595         1.769051
 C        -1.166191         3.223740         1.476065
 O        -0.614641         3.786328         2.693835
 C         0.751579         3.197604         2.811534
 C         1.302009         2.899652         1.414656
 C        -0.023393         2.700121         0.605000
 H         0.339700        -0.065781         1.831610
 H        -2.488898         1.868329        -0.334015
 H        -2.321922         0.226924         0.501114
 H        -1.940233         1.208276         2.648857
 H        -1.873313         3.934596         1.026089
 H         1.423443         3.946477         3.293957
 H         0.501568         2.281595         3.382368
 H         1.778834         3.821249         0.974439
 H         2.090673         1.997643         1.362621
 H         0.121000         2.888945        -0.488178
