19
Iteration:  3815charge 0 multiplicity 1
 O         0.109858         0.019925         0.868745
 C        -0.605951         1.242029         0.837083
 C        -2.030530         1.249709         0.369438
 C        -1.717736         1.776018         1.791502
 C        -1.208126         3.215525         1.521440
 O        -0.526855         3.816380         2.651741
 C         0.809716         3.176686         2.796180
 C         1.269096         3.001148         1.378441
 C        -0.048910         2.654121         0.623421
 H         0.746120         0.108884         1.609891
 H        -2.388284         1.877673        -0.334782
 H        -2.633209         0.298751         0.283472
 H        -2.020967         1.046035         2.591587
 H        -1.947553         3.887243         1.099688
 H         1.375589         3.801011         3.429546
 H         0.593947         2.281491         3.352661
 H         1.733625         3.874071         0.848229
 H         1.928071         2.164710         1.216281
 H        -0.074284         2.961825        -0.430383
