19
Iteration:  1760
 O         0.129417         0.086402         1.007579
 C        -0.631091         1.225460         0.766285
 C        -2.085024         1.089420         0.387398
 C        -1.702623         1.779461         1.723468
 C        -1.172189         3.194046         1.531991
 O        -0.484056         3.840512         2.629950
 C         0.834171         3.314911         2.775019
 C         1.222679         2.839996         1.430687
 C        -0.084768         2.762117         0.645781
 H         0.630951        -0.000351         0.153628
 H        -2.602592         1.653311        -0.371044
 H        -2.604105         0.080574         0.257493
 H        -2.202694         1.410621         2.621034
 H        -1.645373         4.049913         0.996539
 H         1.424869         4.119825         3.158503
 H         0.731087         2.443144         3.515642
 H         1.891590         3.511704         1.030385
 H         1.822345         1.863087         1.527959
 H        -0.093298         3.040258        -0.404043
