19
Iteration:  4483
 O         0.138424         0.059612         0.903330
 C        -0.593179         1.275796         0.863051
 C        -2.036036         1.218268         0.344625
 C        -1.754626         1.842833         1.741369
 C        -1.165026         3.233145         1.497520
 O        -0.565686         3.709981         2.685842
 C         0.767043         3.188144         2.803817
 C         1.241088         2.949308         1.358789
 C        -0.046558         2.679085         0.589794
 H         0.821925         0.193935         1.568255
 H        -2.463689         1.706273        -0.574303
 H        -2.324449         0.173506         0.520150
 H        -2.182261         1.336193         2.684987
 H        -1.882461         3.975812         1.182237
 H         1.561711         3.819546         3.306948
 H         0.794478         2.173635         3.334155
 H         1.678292         3.846334         0.971838
 H         2.107049         2.275168         1.433219
 H         0.019003         3.010118        -0.439037
