19
Iteration:  2032charge 0 multiplicity 1
 O         0.304140         0.207298         0.977166
 C        -0.696918         1.193519         0.775048
 C        -2.094403         1.268381         0.425704
 C        -1.689076         1.777470         1.777055
 C        -1.229944         3.236037         1.513306
 O        -0.458240         3.894926         2.592687
 C         0.758736         3.183948         2.850751
 C         1.195498         2.830774         1.340774
 C        -0.066695         2.547709         0.580873
 H         0.083689        -0.691563         0.556519
 H        -2.518977         2.061055        -0.269520
 H        -2.594207         0.390360         0.581031
 H        -1.968203         1.199678         2.714829
 H        -1.984611         3.921491         1.222054
 H         1.315701         3.889044         3.384650
 H         0.505235         2.224789         3.499094
 H         1.645595         3.672804         0.879868
 H         1.924728         1.968021         1.400919
 H         0.190998         2.750465        -0.443473
