19
Iteration:  3929
 O         0.074812         0.023137         0.914230
 C        -0.595785         1.232890         0.772331
 C        -2.043100         1.209280         0.346603
 C        -1.665520         1.817435         1.701915
 C        -1.195299         3.184572         1.614740
 O        -0.491582         3.801757         2.704221
 C         0.758606         3.222345         2.785477
 C         1.244217         3.036767         1.320159
 C        -0.040394         2.575670         0.627994
 H         0.581788         0.042405         1.694813
 H        -2.420831         1.967276        -0.518154
 H        -2.542596         0.246052         0.240612
 H        -2.064769         1.366952         2.615524
 H        -1.992509         3.940587         1.300456
 H         1.444074         3.913449         3.413936
 H         0.776279         2.246854         3.246032
 H         1.637164         3.962773         0.909506
 H         2.024723         2.268266         1.313574
 H        -0.076266         2.960507        -0.338141
