19
Iteration:  2517
 O         0.152738         0.051190         1.108578
 C        -0.653575         1.166901         0.886438
 C        -2.028997         1.217615         0.358705
 C        -1.820444         1.825886         1.759813
 C        -1.126497         3.178787         1.507140
 O        -0.500906         3.735164         2.690339
 C         0.883431         3.185922         2.729169
 C         1.222539         3.125936         1.285063
 C        -0.052956         2.628366         0.553666
 H        -0.039964        -0.447340         0.273425
 H        -2.256245         1.736256        -0.551049
 H        -2.700004         0.366865         0.532403
 H        -2.400329         1.609068         2.595649
 H        -1.727508         4.024527         1.156872
 H         1.478718         4.032393         3.323375
 H         0.866511         2.166798         3.272689
 H         1.476173         4.142141         0.868298
 H         2.059298         2.480863         1.158625
 H        -0.011177         2.814059        -0.553525
