19
Iteration:  1640charge 0 multiplicity 1
 O         0.229750         0.181239         1.042135
 C        -0.610298         1.251995         0.905308
 C        -2.011755         1.276532         0.403660
 C        -1.635419         1.777431         1.804604
 C        -1.167051         3.241871         1.513741
 O        -0.572213         3.848219         2.593447
 C         0.711608         3.142013         2.755033
 C         1.230222         2.850349         1.314186
 C        -0.085888         2.623613         0.577337
 H         0.036915        -0.414042         0.339561
 H        -2.479776         1.820618        -0.370831
 H        -2.510662         0.245189         0.388011
 H        -2.048786         1.426865         2.769015
 H        -1.941599         3.904879         0.953597
 H         1.366778         3.682418         3.384765
 H         0.572669         2.063244         3.196284
 H         1.962011         3.584908         0.889084
 H         1.654209         1.738307         1.289430
 H        -0.051170         2.987779        -0.479725
