19
Iteration:  4898charge 0 multiplicity 1
 O         0.091351        -0.001992         0.869266
 C        -0.635502         1.285453         0.834868
 C        -2.094411         1.209899         0.232297
 C        -1.696395         1.739543         1.739227
 C        -1.133383         3.152953         1.544494
 O        -0.541422         3.826789         2.729133
 C         0.807627         3.287245         2.874021
 C         1.217813         2.985363         1.374981
 C         0.042333         2.636180         0.614415
 H         0.579841        -0.018051         1.689073
 H        -2.290310         2.007925        -0.541706
 H        -2.555895         0.180468         0.269514
 H        -2.227940         1.352004         2.554358
 H        -1.937403         3.830524         1.121817
 H         1.480575         4.072359         3.470288
 H         0.759873         2.324531         3.466737
 H         1.627144         3.813781         0.748460
 H         1.964910         2.100165         1.326746
 H        -0.045646         3.042299        -0.446074
