19
Iteration:  1418
 O         0.196914         0.034900         0.892648
 C        -0.575888         1.259896         0.874711
 C        -2.086433         1.285531         0.522087
 C        -1.662332         1.779318         1.792101
 C        -1.192085         3.186111         1.468314
 O        -0.533154         3.868952         2.614225
 C         0.730907         3.235115         2.813153
 C         1.171857         2.957828         1.396791
 C         0.004427         2.538255         0.535502
 H        -0.272798        -0.518596         0.314119
 H        -2.374221         2.031895        -0.158301
 H        -2.382846         0.182984         0.450932
 H        -2.032637         1.589994         2.809257
 H        -1.793882         3.996110         0.939157
 H         1.387217         4.008871         3.341302
 H         0.626798         2.325114         3.484342
 H         1.740985         3.831119         0.968564
 H         1.912456         2.046314         1.262241
 H         0.138888         2.607730        -0.544039
