19
Iteration:  2073charge 0 multiplicity 1
 O         0.111683        -0.007548         0.920526
 C        -0.593887         1.212080         0.831854
 C        -2.032536         1.121018         0.435818
 C        -1.728136         1.861823         1.763488
 C        -1.157607         3.319128         1.488706
 O        -0.545413         3.783712         2.654936
 C         0.788415         3.277542         2.805242
 C         1.293227         3.012781         1.412430
 C        -0.038298         2.624983         0.564975
 H        -0.356515        -0.561529         0.312683
 H        -2.503787         1.504732        -0.499631
 H        -2.388441         0.148338         0.706012
 H        -2.134238         1.487885         2.721045
 H        -1.956952         4.081991         1.240364
 H         1.554570         3.930382         3.444577
 H         0.878897         2.265792         3.316130
 H         1.684182         3.938548         0.996310
 H         2.059670         2.263464         1.278646
 H        -0.016832         2.836867        -0.543945
