19
Iteration:  3591
 O         0.110661         0.032381         0.912991
 C        -0.617832         1.208751         0.829273
 C        -2.044409         1.218758         0.293219
 C        -1.774968         1.847851         1.729602
 C        -1.220986         3.175343         1.547635
 O        -0.522871         3.765623         2.767613
 C         0.847421         3.314373         2.791660
 C         1.289948         2.932665         1.360799
 C        -0.083220         2.587733         0.594112
 H         0.873827         0.366923         1.360835
 H        -2.421148         1.833154        -0.560132
 H        -2.552378         0.229639         0.337264
 H        -2.274176         1.349905         2.557798
 H        -1.802898         4.069225         1.271644
 H         1.364892         4.147246         3.302526
 H         0.860247         2.360003         3.348291
 H         1.710268         3.857374         0.882735
 H         2.252258         2.151099         1.199111
 H         0.079410         2.899714        -0.535393
