19
Iteration:  1127
 O         0.226727         0.113749         0.865381
 C        -0.600307         1.180855         0.839756
 C        -2.061641         1.167470         0.426938
 C        -1.810073         1.743685         1.749142
 C        -1.204138         3.244940         1.556716
 O        -0.507567         3.913353         2.603398
 C         0.830725         3.261287         2.814882
 C         1.306185         2.901734         1.387917
 C        -0.112581         2.630912         0.641426
 H        -0.414422        -0.658102         0.923265
 H        -2.425396         1.778697        -0.407336
 H        -2.620948         0.159033         0.276154
 H        -2.246024         1.438825         2.637465
 H        -1.858423         4.000148         1.124981
 H         1.586212         3.912315         3.295759
 H         0.722714         2.475611         3.513523
 H         1.910243         3.684114         1.021777
 H         1.939802         1.942798         1.284398
 H        -0.019350         2.736428        -0.365968
