19
Iteration:   658
 O         0.139527         0.150290         0.940354
 C        -0.662495         1.259256         0.801398
 C        -2.067312         1.024601         0.525914
 C        -1.625368         1.941455         1.761291
 C        -1.166932         3.308459         1.378454
 O        -0.494787         3.871735         2.584150
 C         0.744833         3.105972         2.858419
 C         1.258222         2.852705         1.438954
 C        -0.038858         2.666439         0.545077
 H        -0.235687        -0.657489         0.468342
 H        -2.531620         1.423687        -0.292876
 H        -2.482360         0.047525         0.965766
 H        -2.086081         1.504868         2.687729
 H        -1.949470         4.056817         1.117094
 H         1.361548         3.940872         3.283697
 H         0.634887         2.153283         3.382273
 H         1.644465         3.781222         1.137537
 H         2.045843         2.044127         1.338933
 H         0.235013         2.921861        -0.390793
