19
Iteration:  4721charge 0 multiplicity 1
 O         0.064456         0.020671         0.971817
 C        -0.634915         1.184751         0.825556
 C        -1.999806         1.285205         0.294462
 C        -1.687672         1.758004         1.708541
 C        -1.249651         3.163834         1.494214
 O        -0.528491         3.795241         2.683538
 C         0.789410         3.158277         2.798761
 C         1.303598         3.053430         1.380605
 C        -0.042976         2.665732         0.677200
 H         0.968473         0.135424         1.180098
 H        -2.297356         1.925343        -0.584677
 H        -2.458964         0.356165         0.188764
 H        -2.107068         1.481377         2.754278
 H        -1.891025         3.953876         1.082388
 H         1.270088         3.852570         3.369758
 H         0.829349         2.174619         3.285465
 H         1.747665         3.886517         0.994322
 H         2.028527         2.302483         1.267937
 H        -0.154256         3.105196        -0.366576
