19
Iteration:   515charge 0 multiplicity 1
 O         0.176381         0.041472         1.091754
 C        -0.689715         1.189009         0.802731
 C        -2.047102         1.145382         0.386509
 C        -1.749525         1.826494         1.747421
 C        -1.151759         3.242471         1.569784
 O        -0.427032         3.953953         2.612126
 C         0.757108         3.153874         2.773455
 C         1.237334         2.940441         1.332927
 C        -0.075560         2.623953         0.568300
 H         0.781476         0.005353         0.353589
 H        -2.290113         1.888115        -0.343830
 H        -2.574343         0.219782         0.312115
 H        -2.343814         1.422560         2.520759
 H        -1.909972         3.926239         1.142274
 H         1.449668         3.686757         3.528138
 H         0.451137         2.187170         3.192274
 H         1.716374         3.711735         0.837118
 H         1.887900         2.024494         1.241668
 H        -0.270087         3.010834        -0.403890
