19
Iteration:   993
 O        -0.058885         0.036534         1.081972
 C        -0.599043         1.268010         0.885524
 C        -2.073607         1.173248         0.276386
 C        -1.691518         1.763381         1.696964
 C        -1.160843         3.159235         1.561290
 O        -0.519917         3.707734         2.725538
 C         0.918927         3.462931         2.777453
 C         1.273023         2.987024         1.295479
 C        -0.031594         2.578851         0.570155
 H         0.370738        -0.256350         0.277974
 H        -2.588590         1.897276        -0.523882
 H        -2.489393         0.210500         0.351023
 H        -2.148509         1.062023         2.465259
 H        -1.668859         4.087679         1.173241
 H         1.458686         4.344407         3.142369
 H         1.068284         2.690949         3.569759
 H         1.897407         3.721937         0.711912
 H         2.088560         2.189297         1.392714
 H        -0.106254         2.892069        -0.420501
