19
Iteration:  2704charge 0 multiplicity 1
 O         0.117028        -0.020481         0.943357
 C        -0.623352         1.257681         0.826162
 C        -2.044497         1.142077         0.372147
 C        -1.866371         1.886699         1.669708
 C        -1.192660         3.202800         1.565141
 O        -0.501924         3.771314         2.705774
 C         0.821761         3.282657         2.810626
 C         1.249498         2.905012         1.319498
 C        -0.017109         2.705727         0.634545
 H         1.102206         0.196560         0.972673
 H        -2.369680         1.626650        -0.503950
 H        -2.290952         0.124681         0.366559
 H        -2.417189         1.544278         2.584346
 H        -1.879198         4.080184         1.246245
 H         1.640192         3.973039         3.227926
 H         0.996917         2.467549         3.543463
 H         1.674093         3.785453         0.847865
 H         1.997454         2.130159         1.197222
 H         0.021349         2.926541        -0.432111
