19
Iteration:  1707charge 0 multiplicity 1
 O         0.152061        -0.024184         0.891287
 C        -0.582232         1.215878         0.825752
 C        -2.031950         1.261503         0.465695
 C        -1.746080         1.858724         1.788219
 C        -1.202132         3.173427         1.526546
 O        -0.574759         3.823093         2.595413
 C         0.792201         3.302943         2.804011
 C         1.286291         2.991280         1.392030
 C         0.017215         2.606640         0.595924
 H        -0.440501        -0.598028         0.355185
 H        -2.444993         1.783883        -0.392321
 H        -2.345272         0.175334         0.609075
 H        -2.027277         1.336042         2.713756
 H        -1.848295         4.014519         1.038866
 H         1.199880         4.083265         3.465468
 H         0.745572         2.358727         3.523833
 H         1.801328         3.923627         0.969387
 H         1.896657         2.032933         1.491292
 H         0.082903         2.651101        -0.533353
