19
Iteration:  1131
 O         0.202622         0.103312         0.853252
 C        -0.629899         1.184962         0.854681
 C        -2.047251         1.168904         0.401435
 C        -1.800731         1.753256         1.749908
 C        -1.192333         3.214094         1.564065
 O        -0.510777         3.937937         2.627481
 C         0.828245         3.299870         2.837054
 C         1.301697         2.884169         1.389668
 C        -0.086229         2.613305         0.642040
 H        -0.368312        -0.680019         0.857367
 H        -2.337025         1.745245        -0.445065
 H        -2.458728         0.176307         0.329514
 H        -2.338812         1.416852         2.708791
 H        -1.902680         3.865721         1.057073
 H         1.637164         3.960333         3.217743
 H         0.769825         2.383874         3.513134
 H         1.946865         3.704719         0.927817
 H         1.892381         2.040811         1.196818
 H        -0.134502         2.778324        -0.511971
