19
Iteration:  1357charge 0 multiplicity 1
 O         0.030350         0.058649         1.109090
 C        -0.594891         1.191441         0.773901
 C        -2.016415         1.226022         0.296870
 C        -1.647707         1.761088         1.774396
 C        -1.205395         3.198313         1.585607
 O        -0.490522         3.775173         2.652822
 C         0.836651         3.321882         2.781246
 C         1.262346         2.942102         1.289615
 C        -0.116321         2.639734         0.629087
 H         0.672628        -0.118325         0.400933
 H        -2.295674         1.897067        -0.576917
 H        -2.584158         0.330604         0.137245
 H        -2.247108         1.317831         2.675034
 H        -1.936418         3.895570         1.173506
 H         1.441580         4.083921         3.220947
 H         1.007112         2.479318         3.434591
 H         1.630428         3.837208         0.881262
 H         1.905902         2.064317         1.169500
 H        -0.200160         2.966518        -0.456446
