19
Iteration:    34
 O         0.025855        -0.101986         0.970221
 C        -0.615015         1.191980         0.861985
 C        -2.049205         1.328257         0.352384
 C        -1.698001         1.758448         1.739493
 C        -1.184240         3.148909         1.636029
 O        -0.498498         3.882467         2.571115
 C         0.722479         3.425369         2.833419
 C         1.326864         2.954104         1.383063
 C        -0.005967         2.515742         0.574698
 H         0.762203        -0.079425         0.359580
 H        -2.442599         1.983848        -0.444517
 H        -2.350914         0.361640         0.416099
 H        -2.262460         1.320318         2.468081
 H        -1.899559         3.841032         1.255361
 H         1.328794         4.219884         3.170670
 H         0.798150         2.591021         3.525992
 H         1.591028         3.883231         0.866085
 H         2.236471         2.370162         1.401598
 H         0.085413         2.605841        -0.441157
