19
Iteration:  2793charge 0 multiplicity 1
 O         0.218614         0.130343         0.962456
 C        -0.633721         1.281197         0.808296
 C        -2.090394         1.178669         0.406801
 C        -1.767581         1.816098         1.700275
 C        -1.155478         3.230664         1.529461
 O        -0.521409         3.794997         2.699359
 C         0.802358         3.118889         2.753872
 C         1.258209         2.958248         1.368150
 C        -0.075630         2.602294         0.508626
 H         0.195785         0.098249         1.968746
 H        -2.402083         1.701216        -0.458776
 H        -2.515613         0.287284         0.530972
 H        -2.152031         1.522813         2.667509
 H        -1.874207         3.969275         1.056752
 H         1.437873         3.676804         3.428045
 H         0.684553         2.178159         3.289939
 H         1.712538         3.797877         0.940689
 H         2.074614         2.236136         1.391125
 H        -0.114498         2.959897        -0.508196
