19
Iteration:  2487
 O         0.147065         0.104902         1.074015
 C        -0.663949         1.293718         0.906070
 C        -2.022161         1.179283         0.322221
 C        -1.798171         1.855210         1.726649
 C        -1.119319         3.196606         1.522259
 O        -0.550374         3.607865         2.736726
 C         0.859330         3.234878         2.716172
 C         1.276040         3.078844         1.238678
 C        -0.063112         2.639990         0.534784
 H        -0.475736        -0.601497         1.154320
 H        -2.352341         1.596820        -0.675048
 H        -2.668113         0.221207         0.726819
 H        -1.997701         1.613147         2.787499
 H        -1.772395         4.007090         1.227822
 H         1.360206         4.010886         3.221014
 H         1.022644         2.383254         3.228170
 H         1.773088         3.965611         0.808131
 H         2.144979         2.360207         1.308132
 H         0.048050         2.760103        -0.549372
