19
Iteration:  2923charge 0 multiplicity 1
 O         0.111178         0.044203         0.826631
 C        -0.605620         1.249887         0.761762
 C        -2.041952         1.179206         0.423846
 C        -1.667626         1.816822         1.825064
 C        -1.156209         3.198613         1.528935
 O        -0.456632         3.888559         2.581908
 C         0.696349         3.196005         2.866077
 C         1.227848         2.895947         1.422901
 C        -0.075965         2.665634         0.579592
 H         0.656748         0.124599         1.590025
 H        -2.570034         1.583547        -0.383590
 H        -2.215176         0.091708         0.595255
 H        -2.118580         1.216758         2.650421
 H        -1.824408         3.985561         1.059310
 H         1.365179         3.840121         3.470995
 H         0.398637         2.316019         3.419325
 H         1.687043         3.742527         0.930360
 H         1.937514         2.012310         1.370372
 H        -0.058330         3.205405        -0.339770
