19
Iteration:  4899
 O         0.088925         0.001886         0.871399
 C        -0.631237         1.289582         0.833061
 C        -2.095757         1.199552         0.229288
 C        -1.697668         1.728538         1.751142
 C        -1.140368         3.161419         1.541254
 O        -0.540550         3.829416         2.730577
 C         0.806824         3.287072         2.878347
 C         1.214836         2.982397         1.375448
 C         0.043149         2.637479         0.613554
 H         0.553145        -0.004963         1.684076
 H        -2.283253         2.015936        -0.526380
 H        -2.523628         0.227350         0.256109
 H        -2.216032         1.346651         2.508441
 H        -1.934028         3.833521         1.119578
 H         1.501957         4.067397         3.467896
 H         0.776087         2.312786         3.431038
 H         1.676453         3.808283         0.748230
 H         1.964401         2.081590         1.311453
 H        -0.036321         3.040463        -0.490826
