19
Iteration:    91charge 0 multiplicity 1
 O         0.134392         0.090331         0.971913
 C        -0.629338         1.209480         0.798690
 C        -2.065875         1.214065         0.473560
 C        -1.651735         1.800305         1.771480
 C        -1.175031         3.174647         1.426426
 O        -0.552971         3.897833         2.585269
 C         0.792687         3.282245         2.810873
 C         1.261097         2.874150         1.490760
 C        -0.028340         2.567142         0.557054
 H         0.063640        -0.465599         0.179357
 H        -2.394729         1.918556        -0.332772
 H        -2.665442         0.283222         0.401718
 H        -2.019555         1.454903         2.762171
 H        -1.954985         3.850973         1.003249
 H         1.422883         4.032813         3.248088
 H         0.667485         2.503722         3.600842
 H         1.618473         3.835972         0.994186
 H         1.975352         2.011120         1.581812
 H         0.197184         2.767722        -0.490054
