19
Iteration:  3376charge 0 multiplicity 1
 O         0.044850         0.095440         0.910882
 C        -0.614507         1.252432         0.809206
 C        -2.045633         1.192052         0.397929
 C        -1.786745         1.802113         1.751111
 C        -1.086437         3.248275         1.526528
 O        -0.560460         3.725132         2.671980
 C         0.776321         3.165950         2.808769
 C         1.263524         3.001502         1.341657
 C         0.058022         2.625918         0.610125
 H         0.743710         0.280186         1.514551
 H        -2.557348         1.573352        -0.523738
 H        -2.289110         0.159021         0.462334
 H        -2.240629         1.462353         2.603681
 H        -1.856633         3.862347         1.117758
 H         1.285016         3.976528         3.459194
 H         0.789251         2.199240         3.257295
 H         1.662702         4.034172         1.044535
 H         2.063418         2.362851         1.023417
 H         0.122282         2.963039        -0.422842
