19
Iteration:  4748
 O         0.117519         0.079720         0.907970
 C        -0.663659         1.222085         0.792317
 C        -2.019051         1.232452         0.377689
 C        -1.749091         1.782728         1.677858
 C        -1.169856         3.233144         1.474835
 O        -0.492801         3.807740         2.756119
 C         0.714123         3.134647         2.840974
 C         1.218137         3.008135         1.419934
 C         0.015220         2.614196         0.509302
 H         0.757223         0.171554         1.577663
 H        -2.551711         1.488494        -0.486285
 H        -2.376452         0.158064         0.534123
 H        -2.051868         1.380703         2.585158
 H        -1.769803         4.091757         1.141782
 H         1.396371         3.904254         3.444015
 H         0.777988         2.177043         3.422825
 H         1.741098         4.004506         1.058998
 H         2.132843         2.224141         1.344595
 H         0.045820         2.935960        -0.559855
