19
Iteration:  4015charge 0 multiplicity 1
 O         0.123337         0.069522         0.826790
 C        -0.644611         1.223703         0.742397
 C        -2.094897         1.221325         0.367639
 C        -1.689398         1.726874         1.826976
 C        -1.205285         3.186737         1.573734
 O        -0.512719         3.863825         2.598594
 C         0.743609         3.192067         2.783664
 C         1.290634         2.956507         1.425105
 C        -0.014497         2.647041         0.676762
 H         0.644587         0.179752         1.684892
 H        -2.462838         1.891948        -0.393559
 H        -2.338785         0.249692         0.406024
 H        -1.989176         0.946775         2.537685
 H        -1.789028         4.050940         1.143247
 H         1.380164         4.015826         3.306804
 H         0.730087         2.351096         3.527141
 H         1.904602         3.775655         0.993991
 H         1.926297         2.101357         1.398405
 H        -0.154062         3.116541        -0.367507
