19
Iteration:  3384
 O         0.054093         0.038800         0.897882
 C        -0.637687         1.263733         0.851933
 C        -2.039468         1.202486         0.353333
 C        -1.707240         1.790618         1.707992
 C        -1.172620         3.240344         1.579460
 O        -0.561511         3.748162         2.677951
 C         0.791473         3.171760         2.765598
 C         1.312628         3.057880         1.349277
 C         0.009601         2.611269         0.606079
 H         0.664632         0.021864         1.636054
 H        -2.318986         1.833991        -0.461255
 H        -2.466958         0.183831         0.585894
 H        -2.111799         1.387394         2.660043
 H        -1.905475         4.142470         1.201971
 H         1.397613         3.918828         3.342508
 H         0.532993         2.186137         3.213836
 H         1.631713         4.031297         0.967010
 H         2.110448         2.315890         1.325138
 H         0.152087         2.790892        -0.446258
