19
Iteration:  4793
 O         0.213801         0.172475         0.856151
 C        -0.618619         1.322060         0.819989
 C        -2.032322         1.192037         0.380319
 C        -1.681203         1.822341         1.744071
 C        -1.214613         3.187702         1.507467
 O        -0.545843         3.845698         2.639122
 C         0.755536         3.094517         2.816960
 C         1.214529         2.856855         1.444431
 C        -0.030836         2.622770         0.591435
 H         0.316057         0.014666         1.768252
 H        -2.382333         1.870860        -0.412434
 H        -2.434470         0.241946         0.324945
 H        -2.123201         1.687455         2.723147
 H        -2.023812         3.852979         1.252276
 H         1.373584         3.677406         3.530481
 H         0.428856         2.143446         3.278118
 H         1.821353         3.695286         0.953898
 H         1.905262         2.009720         1.256553
 H        -0.022048         2.806304        -0.455898
