19
Iteration:  3324
 O         0.167464         0.178228         0.940651
 C        -0.556064         1.243383         0.819772
 C        -1.976256         1.182338         0.419083
 C        -1.800840         1.790335         1.759478
 C        -1.173886         3.243193         1.498335
 O        -0.505644         3.844951         2.681126
 C         0.716018         3.080808         2.762694
 C         1.251563         2.869623         1.342678
 C        -0.121957         2.656975         0.560238
 H         0.902326         0.352827         1.512869
 H        -2.409203         1.858819        -0.398545
 H        -2.441334         0.261789         0.337687
 H        -2.148265         1.629610         2.717412
 H        -1.884199         3.900195         1.116785
 H         1.449421         3.482712         3.462277
 H         0.521430         2.058490         3.282730
 H         1.876238         3.762818         1.144544
 H         1.943914         1.975899         1.252380
 H        -0.211428         3.014323        -0.520082
