19
Iteration:  3143
 O         0.159582         0.035844         0.754890
 C        -0.630804         1.213407         0.879049
 C        -2.103306         1.144839         0.441141
 C        -1.582051         1.832843         1.832307
 C        -1.150888         3.264378         1.526159
 O        -0.565410         3.969762         2.591825
 C         0.696004         3.077294         2.819839
 C         1.246151         2.930527         1.434300
 C         0.023226         2.626953         0.542888
 H         0.613999        -0.199678         1.588224
 H        -2.498021         1.908348        -0.216156
 H        -2.736762         0.347778         0.522337
 H        -1.979777         1.436011         2.737901
 H        -1.906729         3.773639         1.109220
 H         1.190218         3.678094         3.572366
 H         0.204278         2.231758         3.350867
 H         1.505740         3.926352         1.133011
 H         2.104262         2.296043         1.194515
 H         0.271856         2.897028        -0.452620
