19
Iteration:   897charge 0 multiplicity 1
 O         0.194603         0.120944         0.923383
 C        -0.616702         1.164851         0.719016
 C        -2.094802         1.114703         0.523023
 C        -1.638531         1.835837         1.790206
 C        -1.103305         3.314926         1.519412
 O        -0.496612         3.970573         2.584030
 C         0.675855         3.180864         2.803250
 C         1.225908         2.800403         1.449748
 C        -0.065937         2.654769         0.530431
 H        -0.252408        -0.658153         0.458476
 H        -2.672000         1.510958        -0.346713
 H        -2.567547         0.234520         0.804846
 H        -1.807481         1.440438         2.889593
 H        -1.756030         4.071210         1.159637
 H         1.407935         3.658792         3.497561
 H         0.447404         2.229942         3.279096
 H         1.782027         3.646364         1.086169
 H         2.039131         2.009668         1.391364
 H        -0.119490         3.072612        -0.555842
