19
Iteration:  2990charge 0 multiplicity 1
 O         0.078947         0.027552         0.925915
 C        -0.612667         1.247860         0.906698
 C        -2.033570         1.211669         0.363335
 C        -1.771004         1.799542         1.752874
 C        -1.197120         3.280101         1.467632
 O        -0.505273         3.769145         2.713482
 C         0.796125         3.161862         2.772662
 C         1.262046         3.022324         1.331535
 C        -0.014806         2.635119         0.552953
 H         0.858670         0.203579         1.547293
 H        -2.333149         1.726656        -0.442547
 H        -2.191012         0.086239         0.398221
 H        -2.164086         1.362199         2.722176
 H        -1.922845         4.093081         1.229869
 H         1.353603         3.768292         3.458031
 H         0.629533         2.181959         3.190587
 H         1.536319         3.987908         0.970165
 H         2.143165         2.326568         1.235626
 H         0.010347         2.678668        -0.507196
