19
Iteration:  2438charge 0 multiplicity 1
 O         0.241796         0.231002         0.979281
 C        -0.676363         1.211207         0.887199
 C        -2.038877         1.188107         0.360283
 C        -1.743427         1.736330         1.751011
 C        -1.187841         3.223606         1.544246
 O        -0.483219         3.816024         2.653901
 C         0.788592         3.186977         2.732373
 C         1.235114         2.887986         1.273499
 C        -0.109882         2.612261         0.569830
 H         0.086451        -0.323006         1.794608
 H        -2.185928         1.914889        -0.427519
 H        -2.598981         0.346184         0.347524
 H        -2.483862         1.488205         2.580960
 H        -1.978239         4.028376         1.464022
 H         1.527711         3.863425         3.394033
 H         0.793498         2.212432         3.386417
 H         1.962005         3.581998         0.845937
 H         1.881453         2.009981         1.318300
 H        -0.091896         3.036962        -0.454888
