19
Iteration:  2684charge 0 multiplicity 1
 O         0.031722         0.036047         0.839526
 C        -0.679603         1.244295         0.856864
 C        -1.995682         1.114407         0.330232
 C        -1.700905         1.748603         1.760707
 C        -1.163115         3.277251         1.545136
 O        -0.537978         3.812354         2.697936
 C         0.819869         3.316388         2.794547
 C         1.323698         2.957977         1.372189
 C        -0.071827         2.615598         0.607454
 H         0.743183         0.199105         1.461970
 H        -2.393921         1.693344        -0.502564
 H        -2.489628         0.273873         0.568227
 H        -2.233841         1.280173         2.612224
 H        -1.666725         4.054360         1.052355
 H         1.389050         4.065207         3.342589
 H         0.953238         2.415222         3.564929
 H         1.882243         3.630183         0.820269
 H         1.864644         2.036050         1.507489
 H        -0.091433         2.947347        -0.430483
