19
Iteration:  4493charge 0 multiplicity 1
 O         0.169816         0.066414         0.887240
 C        -0.611270         1.244379         0.858797
 C        -2.010669         1.226408         0.353776
 C        -1.721853         1.819289         1.657916
 C        -1.259680         3.243903         1.560763
 O        -0.546213         3.785840         2.757374
 C         0.757175         3.180508         2.757755
 C         1.261908         2.940349         1.344901
 C         0.006473         2.615198         0.614644
 H         0.764814         0.006368         1.685681
 H        -2.311660         1.814471        -0.499724
 H        -2.681279         0.330112         0.437304
 H        -2.135221         1.477921         2.685880
 H        -1.923634         3.972799         1.153159
 H         1.274545         4.003326         3.297947
 H         0.664339         2.220008         3.425221
 H         1.528459         3.846482         0.876310
 H         2.009485         2.039630         1.087270
 H         0.020611         2.876057        -0.439932
