19
Iteration:  4617
 O         0.197304         0.048485         0.836075
 C        -0.636445         1.169380         0.777881
 C        -2.023228         1.229329         0.386510
 C        -1.679377         1.798483         1.798447
 C        -1.222751         3.222756         1.521366
 O        -0.539253         3.908817         2.639276
 C         0.711407         3.142640         2.820654
 C         1.269140         2.863575         1.427971
 C        -0.088185         2.722693         0.603046
 H         0.856573         0.082499         1.555812
 H        -2.375221         1.924949        -0.470645
 H        -2.490412         0.178815         0.349265
 H        -2.091009         1.346112         2.647149
 H        -1.970846         3.987339         1.165069
 H         1.504231         3.723383         3.530107
 H         0.496083         2.334151         3.527009
 H         1.774127         3.831233         1.046861
 H         2.037602         2.049362         1.268816
 H         0.013143         2.905800        -0.455678
