19
Iteration:  1193charge 0 multiplicity 1
 O        -0.013605         0.017725         0.913762
 C        -0.670092         1.232465         0.799864
 C        -2.080956         1.202320         0.443261
 C        -1.622368         1.748727         1.720198
 C        -1.144671         3.162231         1.496766
 O        -0.555614         3.785779         2.679191
 C         0.808824         3.440102         2.751231
 C         1.318863         2.983865         1.433244
 C         0.035400         2.569801         0.639409
 H         0.382779        -0.390758         0.122439
 H        -2.428547         1.914797        -0.298117
 H        -2.610705         0.126243         0.479353
 H        -1.958558         1.245473         2.640706
 H        -1.877119         3.863757         1.089716
 H         1.301449         4.332983         3.229166
 H         0.971302         2.727677         3.554837
 H         1.861888         3.734073         0.905212
 H         1.949135         2.039995         1.538732
 H         0.023275         2.938856        -0.346580
