19
Iteration:  1019
 O         0.169739         0.090850         1.123629
 C        -0.599222         1.197045         0.845437
 C        -2.067262         1.262071         0.350079
 C        -1.749880         1.837236         1.735181
 C        -1.175286         3.182628         1.521822
 O        -0.547275         3.684950         2.694293
 C         0.868331         3.311746         2.749709
 C         1.254044         2.924596         1.257653
 C        -0.071526         2.664035         0.568705
 H         0.037385        -0.648134         0.573390
 H        -2.310467         1.944401        -0.371782
 H        -2.824077         0.425696         0.427130
 H        -2.448450         1.488552         2.455873
 H        -1.674187         4.008530         1.146481
 H         1.561051         4.059505         3.239987
 H         0.735378         2.412363         3.446151
 H         1.798921         3.774761         0.879500
 H         1.988664         2.050430         1.108718
 H        -0.077938         2.981919        -0.517783
