19
Iteration:  2400
 O         0.112808         0.051105         0.834294
 C        -0.582454         1.214280         0.782160
 C        -2.123755         1.099162         0.536268
 C        -1.631195         1.808198         1.792913
 C        -1.125837         3.279836         1.452281
 O        -0.486162         3.866896         2.607147
 C         0.686952         3.147965         2.845182
 C         1.258268         2.987137         1.421948
 C        -0.026082         2.688255         0.509200
 H         0.576821         0.043707         1.655658
 H        -2.618232         1.658629        -0.275325
 H        -2.648289         0.058390         0.701200
 H        -2.030617         1.623065         2.748669
 H        -1.947629         3.861426         1.076929
 H         1.298547         3.717450         3.458296
 H         0.451097         2.098267         3.345283
 H         1.614776         3.966822         1.058803
 H         2.025822         2.183092         1.443650
 H         0.036947         2.871316        -0.559751
