19
Iteration:  4052charge 0 multiplicity 1
 O         0.164123         0.047107         0.764353
 C        -0.622222         1.228343         0.798967
 C        -1.989010         1.223708         0.505112
 C        -1.621071         1.855073         1.764227
 C        -1.171192         3.289549         1.545575
 O        -0.526012         3.829554         2.640675
 C         0.661687         3.112733         2.828624
 C         1.212749         2.957680         1.412265
 C        -0.064591         2.611164         0.569009
 H         0.596472        -0.109818         1.594875
 H        -2.477922         1.705882        -0.395277
 H        -2.562069         0.159982         0.584068
 H        -2.045872         1.510405         2.693968
 H        -1.896389         3.847383         0.936823
 H         1.266691         3.906098         3.295277
 H         0.622082         2.184691         3.390299
 H         1.686003         3.870517         1.182475
 H         1.922903         2.090973         1.335190
 H         0.055763         2.935726        -0.385167
