19
Iteration:   748
 O         0.016318         0.008691         1.113828
 C        -0.672600         1.177055         0.835787
 C        -2.084529         1.114425         0.366392
 C        -1.836692         1.833399         1.656531
 C        -1.082423         3.248112         1.560799
 O        -0.508220         3.772802         2.735374
 C         0.836341         3.321676         2.806689
 C         1.381335         3.038926         1.242057
 C         0.019404         2.639023         0.555446
 H         0.170848        -0.373495         0.170128
 H        -2.425525         1.689631        -0.573063
 H        -2.442902         0.144956         0.425253
 H        -2.142017         1.377108         2.700941
 H        -1.867524         3.989323         1.171085
 H         1.299377         4.248062         3.120193
 H         0.964475         2.431526         3.502670
 H         1.733171         3.928778         0.650104
 H         2.012252         2.182307         1.241685
 H         0.088406         2.869794        -0.459642
