19
Iteration:  1876
 O         0.228011         0.183723         1.038275
 C        -0.683592         1.318622         0.796990
 C        -2.105242         1.209280         0.429277
 C        -1.810954         1.852699         1.685652
 C        -1.144687         3.187877         1.446662
 O        -0.517906         3.644217         2.715100
 C         0.872388         3.284244         2.760663
 C         1.197810         2.893730         1.411603
 C        -0.043991         2.570791         0.589638
 H         0.122226        -0.496541         0.376382
 H        -2.352559         1.594125        -0.505844
 H        -2.587427         0.150424         0.441404
 H        -2.133350         1.624950         2.720472
 H        -1.634724         4.001275         0.936649
 H         1.439988         4.229460         3.084469
 H         0.901311         2.410980         3.414621
 H         1.644180         3.877639         0.987548
 H         1.954179         2.118733         1.314411
 H         0.155997         2.899525        -0.452961
