19
Iteration:   499
 O         0.141754         0.115820         1.087346
 C        -0.597477         1.230970         0.912689
 C        -2.046366         1.203941         0.290941
 C        -1.730918         1.764900         1.760200
 C        -1.207771         3.257410         1.539845
 O        -0.389405         3.955200         2.553943
 C         0.779310         3.072051         2.792593
 C         1.153981         2.858560         1.319675
 C        -0.120552         2.612830         0.631975
 H         0.869812         0.127198         0.382575
 H        -2.362625         1.625788        -0.698313
 H        -2.598312         0.217594         0.549185
 H        -2.125353         1.353241         2.792430
 H        -1.867941         4.046551         1.169104
 H         1.514208         3.738549         3.232459
 H         0.505288         2.167564         3.389223
 H         1.413381         4.007351         1.126031
 H         2.082853         2.319106         1.141302
 H         0.021954         2.721523        -0.506150
