19
Iteration:  1148charge 0 multiplicity 1
 O         0.136130         0.050395         0.846245
 C        -0.646312         1.168534         0.860755
 C        -2.004557         1.189673         0.311201
 C        -1.695115         1.793186         1.828710
 C        -1.119556         3.190929         1.604526
 O        -0.515245         3.873180         2.664910
 C         0.782509         3.413258         2.743949
 C         1.210944         2.905123         1.373175
 C        -0.031985         2.533774         0.658995
 H        -0.449538        -0.679431         0.483933
 H        -2.399125         1.749115        -0.596903
 H        -2.729855         0.239750         0.403775
 H        -2.251765         1.418290         2.606818
 H        -1.773228         3.991600         1.194328
 H         1.358538         4.192423         3.270408
 H         0.842562         2.662538         3.517150
 H         1.660128         3.689243         0.837770
 H         2.033821         2.129973         1.668094
 H         0.082142         2.961908        -0.331381
