19
Iteration:  1675
 O         0.162637         0.029414         0.890031
 C        -0.661915         1.231175         0.798923
 C        -2.124486         1.101978         0.446193
 C        -1.665489         1.872725         1.736391
 C        -1.103196         3.232249         1.477155
 O        -0.496214         3.879508         2.618342
 C         0.755858         3.206147         2.869444
 C         1.225819         3.066788         1.441100
 C        -0.030809         2.575004         0.618542
 H        -0.217001        -0.722560         0.479990
 H        -2.588059         1.519898        -0.419852
 H        -2.363765         0.078129         0.852019
 H        -2.040112         1.511214         2.722001
 H        -1.605044         4.015270         0.791334
 H         1.366645         3.794838         3.595889
 H         0.510877         2.226282         3.329848
 H         1.591699         4.068477         0.924150
 H         2.059099         2.296771         1.248385
 H         0.129837         2.708293        -0.502322
