19
Iteration:  3281
 O         0.113888        -0.012859         0.884676
 C        -0.631092         1.205041         0.752726
 C        -2.070317         1.156451         0.431186
 C        -1.703942         1.809160         1.761827
 C        -1.115762         3.225651         1.484014
 O        -0.556441         3.829521         2.748552
 C         0.783806         3.204586         2.807754
 C         1.198867         3.101169         1.386614
 C        -0.006898         2.622124         0.538305
 H         0.184291        -0.100409         1.857008
 H        -2.235030         1.926121        -0.385544
 H        -2.610744         0.269857         0.303165
 H        -2.027359         1.338434         2.611494
 H        -1.771026         3.999388         0.970997
 H         1.535275         3.703687         3.411989
 H         0.744533         2.095539         3.171154
 H         1.737703         3.912477         0.924474
 H         2.006477         2.314502         1.349211
 H         0.308253         3.047285        -0.489426
