19
Iteration:  3921charge 0 multiplicity 1
 O         0.085082         0.015296         0.928306
 C        -0.601534         1.194315         0.764110
 C        -2.004332         1.255401         0.363693
 C        -1.676421         1.747259         1.734337
 C        -1.213481         3.191376         1.580409
 O        -0.497948         3.812886         2.709122
 C         0.763509         3.163543         2.789496
 C         1.239969         3.067219         1.309222
 C        -0.034250         2.682130         0.583198
 H         0.558007         0.019205         1.735620
 H        -2.227786         2.008425        -0.513172
 H        -2.630564         0.294939         0.651731
 H        -2.215087         1.470986         2.552044
 H        -2.039167         3.805512         1.190483
 H         1.493826         3.768831         3.320247
 H         0.641308         2.211021         3.385613
 H         1.806762         3.905852         0.929070
 H         1.965385         2.151312         1.341849
 H        -0.175551         2.961295        -0.483271
