19
Iteration:  2565charge 0 multiplicity 1
 O         0.120392         0.105880         1.035648
 C        -0.592516         1.302666         0.809190
 C        -2.134831         1.180437         0.460108
 C        -1.593376         1.782312         1.761262
 C        -1.193870         3.203718         1.541301
 O        -0.485086         3.792304         2.573526
 C         0.740580         3.210185         2.823227
 C         1.244767         2.859217         1.300873
 C        -0.085525         2.694217         0.547836
 H         0.855150         0.128510         0.372357
 H        -2.528700         1.875326        -0.392790
 H        -2.541361         0.121602         0.479019
 H        -1.866791         1.416919         2.823594
 H        -1.946151         3.879474         1.209590
 H         1.242143         3.926363         3.360568
 H         0.614184         2.361229         3.425678
 H         1.877263         3.649482         0.927197
 H         1.888389         1.941471         1.430998
 H        -0.130264         3.001964        -0.499492
