19
Iteration:  2238charge 0 multiplicity 1
 O         0.205408         0.123702         0.969236
 C        -0.658823         1.231905         0.895813
 C        -2.017734         1.173573         0.358036
 C        -1.804146         1.736908         1.718374
 C        -1.191025         3.218674         1.535332
 O        -0.481360         3.909037         2.665042
 C         0.799509         3.184044         2.816857
 C         1.250533         2.998722         1.307642
 C        -0.018309         2.543258         0.587692
 H        -0.293045        -0.565714         0.498452
 H        -2.217188         1.796539        -0.449356
 H        -2.665199         0.250524         0.508412
 H        -2.252940         1.269012         2.599657
 H        -1.869625         4.075455         1.225932
 H         1.536769         3.802867         3.544539
 H         0.634658         2.219964         3.349250
 H         1.529815         3.913691         0.872548
 H         2.146866         2.303117         1.328012
 H        -0.194304         2.836851        -0.452608
