19
Iteration:  4695charge 0 multiplicity 1
 O         0.089867         0.028500         0.884948
 C        -0.596411         1.185891         0.850491
 C        -1.997565         1.225752         0.281120
 C        -1.730453         1.845390         1.727684
 C        -1.218984         3.214728         1.584311
 O        -0.564800         3.806594         2.730377
 C         0.790545         3.193868         2.822249
 C         1.225224         2.970190         1.343930
 C         0.026449         2.584290         0.607144
 H         0.861625        -0.006240         1.404237
 H        -2.157882         1.970046        -0.510315
 H        -2.498035         0.142257         0.229732
 H        -2.223617         1.622078         2.660434
 H        -1.758751         4.063574         1.121323
 H         1.282047         4.113042         3.325405
 H         0.818153         2.259153         3.394876
 H         1.463769         3.963250         0.818345
 H         2.125451         2.345236         1.272996
 H        -0.052400         2.982057        -0.357788
