19
Iteration:  4398
 O         0.180007         0.117232         0.878902
 C        -0.642982         1.272686         0.748574
 C        -1.994056         1.179214         0.381807
 C        -1.779071         1.753605         1.769970
 C        -1.171932         3.191616         1.523942
 O        -0.490915         3.826485         2.686899
 C         0.708563         3.167091         2.810779
 C         1.227624         2.957981         1.309857
 C        -0.015221         2.624942         0.653653
 H         0.535776        -0.023035         1.811649
 H        -2.395898         1.949916        -0.402271
 H        -2.408079         0.199850         0.219419
 H        -2.229846         1.391042         2.777865
 H        -1.871395         4.021804         1.168475
 H         1.371388         3.819004         3.526912
 H         0.518711         2.206177         3.268686
 H         1.799450         3.872842         0.869436
 H         1.845047         2.143048         1.487257
 H         0.068222         3.019147        -0.363463
