19
Iteration:   428charge 0 multiplicity 1
 O         0.160110         0.134440         1.064568
 C        -0.664566         1.238856         0.851283
 C        -2.053645         1.143726         0.351088
 C        -1.793430         1.846275         1.730282
 C        -1.181346         3.187118         1.474352
 O        -0.496135         3.875641         2.643794
 C         0.858596         3.160475         2.796297
 C         1.273056         2.968429         1.336354
 C        -0.030818         2.580140         0.652580
 H        -0.374311        -0.588962         0.625006
 H        -2.419350         1.614801        -0.607098
 H        -2.358310         0.161945         0.455129
 H        -2.322607         1.339133         2.543268
 H        -1.795802         3.920257         0.926739
 H         1.534617         3.984874         3.112990
 H         0.878036         2.290861         3.434574
 H         1.630811         3.882224         0.958506
 H         2.027939         2.186002         1.123112
 H        -0.061737         3.018797        -0.395544
