19
Iteration:  1156charge 0 multiplicity 1
 O         0.132203         0.006417         0.860992
 C        -0.628038         1.143695         0.820432
 C        -2.049919         1.206831         0.358601
 C        -1.672120         1.769305         1.777524
 C        -1.139768         3.237306         1.593342
 O        -0.548257         3.826762         2.659306
 C         0.801541         3.454351         2.761793
 C         1.259262         2.945358         1.435389
 C        -0.056446         2.550220         0.675466
 H        -0.474606        -0.635186         0.361937
 H        -2.303232         1.978839        -0.485375
 H        -2.707145         0.381469         0.403961
 H        -2.169391         1.407483         2.674607
 H        -1.862857         3.959358         1.074341
 H         1.472714         4.264021         3.032117
 H         0.890672         2.573289         3.506492
 H         1.819085         3.718858         0.848411
 H         2.013716         2.126431         1.501815
 H         0.059635         2.674099        -0.500829
