19
Iteration:  2505charge 0 multiplicity 1
 O         0.125203         0.062658         1.069223
 C        -0.584918         1.258035         0.890017
 C        -2.048804         1.186562         0.441565
 C        -1.801330         1.861358         1.724509
 C        -1.171765         3.272923         1.483811
 O        -0.525724         3.615534         2.698179
 C         0.844286         3.229477         2.713110
 C         1.247196         3.077162         1.237978
 C        -0.021190         2.611922         0.625366
 H        -0.137249        -0.777224         0.766506
 H        -2.273847         1.893823        -0.323246
 H        -2.434623         0.214831         0.326592
 H        -2.493535         1.598112         2.443487
 H        -1.766686         4.015781         0.903031
 H         1.548181         4.035755         3.330468
 H         1.064498         2.186075         3.294795
 H         1.465363         4.133755         0.882133
 H         2.087678         2.492616         1.001436
 H         0.040393         2.846814        -0.481489
