19
Iteration:  3065
 O         0.125525         0.044393         0.902600
 C        -0.677232         1.240031         0.932920
 C        -2.138202         1.184897         0.283851
 C        -1.804120         1.851308         1.706606
 C        -1.244123         3.208426         1.500767
 O        -0.519332         3.679052         2.720394
 C         0.897015         3.313119         2.777888
 C         1.357314         2.982803         1.354312
 C        -0.025953         2.631915         0.627076
 H         0.774808         0.074628         1.591748
 H        -2.267676         1.825505        -0.533905
 H        -2.395516         0.059994         0.151940
 H        -2.217826         1.623903         2.732558
 H        -1.919360         3.904926         1.188832
 H         1.337778         4.201672         3.209793
 H         1.037109         2.516458         3.573700
 H         1.858782         3.788270         0.902236
 H         2.021288         2.092639         1.239316
 H        -0.058755         2.846173        -0.419433
