19
Iteration:  2466
 O         0.225342         0.160322         1.097722
 C        -0.681062         1.197488         0.780814
 C        -2.089098         1.169355         0.328255
 C        -1.754807         1.796074         1.654044
 C        -1.194738         3.241558         1.531817
 O        -0.479797         3.720360         2.738459
 C         0.895042         3.248677         2.744674
 C         1.244886         2.951610         1.273101
 C        -0.087343         2.644549         0.605974
 H        -0.407060        -0.502086         1.552623
 H        -2.543941         1.787821        -0.484644
 H        -2.500663         0.025977         0.325303
 H        -2.320406         1.480227         2.610670
 H        -1.840563         4.118442         1.386025
 H         1.440668         3.991098         3.149748
 H         0.951755         2.366882         3.395346
 H         1.663411         3.834237         0.769100
 H         2.067540         2.165753         1.083998
 H        -0.172954         3.114509        -0.380666
