19
Iteration:  1828charge 0 multiplicity 1
 O         0.138533         0.075938         1.049066
 C        -0.610859         1.257520         0.830329
 C        -1.956417         1.170728         0.353861
 C        -1.680939         1.767495         1.742564
 C        -1.190320         3.266764         1.567217
 O        -0.439643         3.898207         2.620680
 C         0.725165         3.064828         2.774338
 C         1.184377         3.032994         1.353114
 C        -0.041495         2.600875         0.563719
 H        -0.186395        -0.703627         0.508696
 H        -2.508771         1.851452        -0.292324
 H        -2.373171         0.254074         0.405191
 H        -2.183928         1.308862         2.563627
 H        -1.995116         4.018385         1.356235
 H         1.306528         3.771607         3.419875
 H         0.438974         2.056175         3.201941
 H         1.438968         4.012823         1.035118
 H         1.973783         2.337880         1.131363
 H         0.016016         3.041548        -0.455539
