19
Iteration:  1371charge 0 multiplicity 1
 O         0.017547        -0.029869         1.052175
 C        -0.632021         1.276728         0.825706
 C        -2.054721         1.138366         0.327919
 C        -1.763774         1.739283         1.689887
 C        -1.163281         3.188045         1.586574
 O        -0.497787         3.843101         2.686380
 C         0.879398         3.300716         2.756494
 C         1.235386         2.949687         1.348950
 C        -0.008958         2.691225         0.578700
 H         0.632250        -0.222753         0.319161
 H        -2.540100         1.842500        -0.470909
 H        -2.325196         0.111043         0.522313
 H        -1.995367         1.176876         2.567431
 H        -1.874233         3.926616         1.324989
 H         1.493282         4.261361         3.057168
 H         0.845529         2.623003         3.519217
 H         1.641209         3.914972         0.883111
 H         2.075668         2.289259         1.281496
 H         0.072287         3.116667        -0.377022
