19
Iteration:  1000charge 0 multiplicity 1
 O         0.017188         0.024489         1.124491
 C        -0.622764         1.239671         0.846464
 C        -2.081293         1.232913         0.297135
 C        -1.742910         1.775386         1.711289
 C        -1.174926         3.197744         1.554070
 O        -0.533093         3.701996         2.712765
 C         0.886106         3.374072         2.729510
 C         1.332302         2.980275         1.310955
 C        -0.018428         2.622092         0.605734
 H         0.208656        -0.338443         0.285989
 H        -2.417521         1.861949        -0.476662
 H        -2.452720         0.130239         0.173362
 H        -1.965461         1.255173         2.597402
 H        -1.922711         3.968271         1.189666
 H         1.321101         4.353875         2.950563
 H         1.252994         2.582279         3.366530
 H         1.739061         3.797106         0.697279
 H         1.891669         2.116418         1.458062
 H        -0.089086         3.043997        -0.478048
