19
Iteration:  3186
 O         0.058639         0.088122         0.811073
 C        -0.627937         1.265926         0.861128
 C        -2.071604         1.165630         0.427877
 C        -1.710637         1.700245         1.729225
 C        -1.214808         3.242880         1.498567
 O        -0.562451         3.829660         2.647022
 C         0.776950         3.272121         2.830899
 C         1.329880         2.872996         1.427109
 C         0.013960         2.665846         0.592733
 H         0.893656         0.108499         1.381450
 H        -2.338926         1.708872        -0.492204
 H        -2.528717         0.254559         0.504486
 H        -1.982169         1.219290         2.638820
 H        -1.886210         3.957365         1.088956
 H         1.368640         4.136468         3.172444
 H         0.805942         2.561589         3.715940
 H         1.958567         3.628486         1.030299
 H         2.033128         2.021793         1.434324
 H         0.030606         2.955681        -0.414157
