19
Iteration:  4802
 O         0.201706         0.162146         0.884877
 C        -0.637419         1.178805         0.766983
 C        -2.025037         1.229214         0.369877
 C        -1.655452         1.760378         1.756872
 C        -1.169107         3.263433         1.553348
 O        -0.556379         3.853247         2.619735
 C         0.719081         3.123902         2.814796
 C         1.236521         2.846604         1.405666
 C        -0.059935         2.670394         0.613281
 H         0.402966         0.069516         1.788444
 H        -2.375858         1.954080        -0.339042
 H        -2.615417         0.284787         0.378566
 H        -2.131190         1.436252         2.628752
 H        -1.898179         3.975835         1.150777
 H         1.353606         3.665779         3.640272
 H         0.604164         2.114130         3.240301
 H         1.540666         3.891769         1.033193
 H         1.862774         1.855210         1.293448
 H         0.282157         3.101314        -0.459455
