19
Iteration:  4884charge 0 multiplicity 1
 O         0.093763        -0.017948         0.839275
 C        -0.620703         1.122501         0.774218
 C        -2.018024         1.293581         0.345380
 C        -1.761251         1.824431         1.666306
 C        -1.132588         3.194617         1.579875
 O        -0.549629         3.761387         2.686493
 C         0.771990         3.299679         2.823006
 C         1.296218         3.020145         1.424750
 C        -0.052514         2.590229         0.650706
 H         0.699040         0.034821         1.613354
 H        -2.352039         1.865496        -0.515432
 H        -2.646322         0.272266         0.411109
 H        -2.214960         1.397282         2.695675
 H        -1.750207         3.995939         1.120884
 H         1.332954         4.101428         3.239390
 H         0.850362         2.391949         3.496697
 H         1.643072         3.991615         1.132221
 H         2.170161         2.437069         1.333446
 H         0.012432         2.931086        -0.310305
