19
Iteration:  2538charge 0 multiplicity 1
 O         0.092785         0.031283         1.109871
 C        -0.600786         1.240006         0.805998
 C        -2.086717         1.167475         0.353059
 C        -1.703210         1.730185         1.731595
 C        -1.190306         3.290187         1.612190
 O        -0.478438         3.858846         2.674070
 C         0.807516         3.182891         2.725927
 C         1.255840         2.986746         1.224421
 C        -0.069289         2.635624         0.643607
 H         0.675986        -0.165485         0.322473
 H        -2.353223         1.831584        -0.412147
 H        -2.488236         0.184872         0.299862
 H        -2.126145         1.294274         2.572853
 H        -1.908727         4.040214         1.177433
 H         1.430863         3.934122         3.425083
 H         0.585876         2.113128         3.227177
 H         1.562308         3.983000         0.795198
 H         2.113135         2.368483         1.161192
 H        -0.026775         2.841690        -0.454876
