19
Iteration:  4484charge 0 multiplicity 1
 O         0.141222         0.057733         0.900365
 C        -0.591107         1.275264         0.868427
 C        -2.034638         1.219920         0.345126
 C        -1.752842         1.842110         1.736858
 C        -1.174433         3.233539         1.499483
 O        -0.564906         3.714685         2.691939
 C         0.762761         3.185840         2.802331
 C         1.247538         2.939482         1.358888
 C        -0.040345         2.677287         0.593125
 H         0.835053         0.182996         1.594722
 H        -2.485192         1.717071        -0.624401
 H        -2.347232         0.212041         0.523198
 H        -2.163740         1.334781         2.681708
 H        -1.910640         3.982458         1.181506
 H         1.582868         3.842783         3.293017
 H         0.782703         2.195734         3.314255
 H         1.643091         3.859150         0.936020
 H         2.067452         2.293591         1.414998
 H         0.018084         3.001606        -0.439126
