19
Iteration:  3642
 O         0.095098         0.096229         0.909999
 C        -0.571704         1.269000         0.835991
 C        -2.085396         1.146099         0.367792
 C        -1.726937         1.790264         1.722137
 C        -1.157031         3.240046         1.588467
 O        -0.533876         3.799476         2.687707
 C         0.777463         3.152729         2.802827
 C         1.275180         3.000634         1.323386
 C         0.003400         2.643119         0.499093
 H         0.176733         0.041624         1.868702
 H        -2.522890         1.755232        -0.466683
 H        -2.410675         0.121116         0.430247
 H        -2.099628         1.256255         2.559148
 H        -1.908693         4.000008         1.460236
 H         1.443366         3.748030         3.410526
 H         0.636770         2.189469         3.358837
 H         1.717528         3.951209         1.092937
 H         1.966993         2.280753         1.381410
 H         0.094264         2.889119        -0.536090
