19
Iteration:  2875charge 0 multiplicity 1
 O         0.017209        -0.034164         0.753592
 C        -0.589547         1.208107         0.794304
 C        -2.042853         1.201873         0.460044
 C        -1.752665         1.768443         1.781281
 C        -1.151995         3.136506         1.512341
 O        -0.519207         3.848343         2.615230
 C         0.791433         3.334831         2.855329
 C         1.269598         3.048472         1.433252
 C         0.053002         2.552936         0.647733
 H         0.652820         0.227135         1.485602
 H        -2.516524         2.072621        -0.204476
 H        -2.531125         0.218583         0.342852
 H        -2.175746         1.438042         2.706587
 H        -1.883632         3.779661         1.099439
 H         1.435988         4.121517         3.329361
 H         0.562507         2.385934         3.416617
 H         1.583043         4.044094         0.963109
 H         2.003753         2.244593         1.376418
 H         0.227450         2.884179        -0.429258
