19
Iteration:  3913
 O         0.115382        -0.014376         0.924531
 C        -0.604062         1.178567         0.846129
 C        -1.986317         1.283822         0.374711
 C        -1.683335         1.725618         1.802750
 C        -1.171287         3.200862         1.533562
 O        -0.551320         3.821166         2.692902
 C         0.790885         3.125040         2.774430
 C         1.240906         2.996357         1.335770
 C        -0.070478         2.819375         0.512230
 H         0.538278         0.077804         1.792118
 H        -2.314046         1.815916        -0.379116
 H        -2.659731         0.385568         0.462403
 H        -2.373041         1.284215         2.586850
 H        -1.844654         3.955662         1.188333
 H         1.385378         3.731250         3.392238
 H         0.600334         2.107237         3.253789
 H         1.783429         3.928023         1.025334
 H         1.939822         2.180304         1.074572
 H        -0.023017         3.132546        -0.625702
