19
Iteration:  2770
 O         0.124704         0.069070         1.001058
 C        -0.581662         1.268582         0.846750
 C        -2.006023         1.071567         0.355109
 C        -1.689617         1.849968         1.732492
 C        -1.198566         3.316346         1.523599
 O        -0.446963         3.797096         2.695585
 C         0.708375         3.017882         2.756470
 C         1.203663         3.011306         1.274823
 C        -0.056981         2.741131         0.568248
 H         0.195699        -0.087075         1.964105
 H        -2.282256         1.498763        -0.589630
 H        -2.466685         0.238333         0.574950
 H        -2.104188         1.685619         2.710112
 H        -1.984025         4.059310         1.140565
 H         1.287968         3.557731         3.536582
 H         0.592179         2.038632         3.172561
 H         1.658017         3.914577         0.916168
 H         1.917443         2.238834         0.968970
 H         0.048103         3.141209        -0.426056
