19
Iteration:  3835
 C         0.065339        -0.250972        -0.045786
 C         1.598759        -0.055850         0.045202
 O         1.839044         1.407635         0.216815
 C         2.285326        -0.908775         1.155289
 C         2.980437        -1.926272         0.594769
 C         3.001063        -1.821870        -0.904345
 C         3.730778        -0.619923        -1.525663
 C         2.251383        -0.526377        -1.279613
 O         1.385363        -0.279381        -2.496188
 H        -0.345610         0.380569        -0.777170
 H        -0.401867        -1.238228        -0.262621
 H        -0.446115         0.085165         0.888641
 H         0.979672         1.851747         0.332900
 H         1.947412        -0.925098         2.142901
 H         3.562840        -2.720994         1.087733
 H         3.030137        -2.676925        -1.587560
 H         4.475067        -0.093755        -0.972239
 H         3.860703        -0.879450        -2.601877
 H         1.908655         0.301878        -3.038216
