19
Iteration:  1196
 C         0.045223        -0.042871        -0.142216
 C         1.558666        -0.080463         0.019026
 O         1.946556         1.294693         0.214402
 C         2.086421        -0.980904         1.106511
 C         2.848826        -1.976965         0.518567
 C         3.104539        -1.723420        -0.971624
 C         3.679353        -0.418122        -1.293954
 C         2.230192        -0.527014        -1.276094
 O         1.498050        -0.514735        -2.465028
 H        -0.244643         0.394911        -1.119633
 H        -0.452443        -0.997582        -0.036429
 H        -0.550586         0.508150         0.687659
 H         2.790357         1.381287        -0.185405
 H         1.869985        -0.765795         2.139738
 H         3.431044        -2.704194         1.037609
 H         3.164452        -2.488472        -1.738827
 H         4.090339         0.084656        -0.413999
 H         4.203009        -0.463527        -2.196246
 H         1.062255         0.370992        -2.469349
