19
Iteration:  2566
 C         0.081738        -0.065538         0.128791
 C         1.577949         0.013416        -0.014673
 O         1.905891         1.425326         0.221564
 C         2.150526        -0.908077         1.053340
 C         2.804901        -1.961085         0.473124
 C         3.017750        -1.768432        -0.993669
 C         3.691880        -0.469832        -1.382519
 C         2.230246        -0.540678        -1.285848
 O         1.530441        -0.621460        -2.543435
 H        -0.538922         0.855234         0.034737
 H        -0.269785        -0.896991        -0.405955
 H        -0.132444        -0.416438         1.102161
 H         2.815423         1.602211         0.059492
 H         2.050163        -0.727521         2.154837
 H         3.165073        -2.963711         0.854406
 H         3.122762        -2.701957        -1.596267
 H         4.289844         0.015333        -0.550711
 H         4.111532        -0.499986        -2.334025
 H         0.860353         0.084507        -2.701080
