19
Iteration:  2961
 C         0.054248        -0.200070        -0.170723
 C         1.519954        -0.012583         0.056494
 O         1.797407         1.414171         0.355149
 C         2.250133        -0.881997         1.105048
 C         3.074928        -1.822993         0.552809
 C         2.960561        -1.784297        -0.954139
 C         3.752133        -0.579722        -1.534424
 C         2.205318        -0.567352        -1.271441
 O         1.419570        -0.473646        -2.452084
 H        -0.308557         0.463297        -0.911842
 H        -0.286405        -1.292403        -0.443743
 H        -0.562570        -0.122409         0.764882
 H         2.826842         1.415026         0.418774
 H         1.994942        -0.763020         2.187522
 H         3.514088        -2.728215         0.948484
 H         2.607277        -2.692385        -1.370422
 H         4.449319        -0.211494        -0.860735
 H         3.972128        -0.552348        -2.644733
 H         1.623440         0.438363        -2.718364
