19
Iteration:  1674charge 0 multiplicity 1
 C         0.086248        -0.108614         0.040928
 C         1.623396        -0.010288         0.011515
 O         1.913916         1.383062         0.082216
 C         2.081349        -0.984826         1.071612
 C         2.808594        -2.020536         0.513071
 C         3.099934        -1.782072        -0.933066
 C         3.723017        -0.472133        -1.332174
 C         2.219855        -0.504494        -1.307280
 O         1.418530        -0.474706        -2.440364
 H        -0.408267         0.784467        -0.420083
 H        -0.378864        -0.969006        -0.406156
 H        -0.178873         0.036806         1.147327
 H         2.850555         1.410357         0.033214
 H         1.846590        -0.990564         2.107277
 H         3.205878        -2.905752         1.057481
 H         3.181702        -2.594110        -1.699872
 H         4.117083         0.081605        -0.552263
 H         4.378146        -0.408555        -2.230556
 H         1.467583         0.424336        -2.868444
