19
Iteration:  1597charge 0 multiplicity 1
 C         0.127138        -0.130749        -0.114348
 C         1.593770         0.011140        -0.028949
 O         1.949887         1.342560         0.436097
 C         2.147849        -0.888206         1.135138
 C         2.830914        -1.914847         0.590235
 C         3.008984        -1.800886        -0.979960
 C         3.757549        -0.647530        -1.433956
 C         2.259114        -0.465029        -1.408078
 O         1.405961        -0.413205        -2.500891
 H        -0.424457         0.447898        -0.912511
 H        -0.095593        -1.188038        -0.293766
 H        -0.376337         0.035228         0.915611
 H         1.144551         1.946104         0.330217
 H         1.810398        -0.791652         2.165372
 H         3.549389        -2.537543         1.155089
 H         2.738610        -2.609358        -1.651883
 H         4.306564         0.082168        -0.831519
 H         4.205868        -0.757144        -2.409089
 H         1.862922        -0.649756        -3.327371
