19
Iteration:  4513charge 0 multiplicity 1
 C         0.076145        -0.205735         0.029423
 C         1.571400         0.018331         0.093597
 O         1.853915         1.381010         0.352491
 C         2.187400        -0.959502         1.052671
 C         2.931191        -1.913659         0.419323
 C         2.947522        -1.732479        -1.040508
 C         3.717965        -0.497370        -1.433879
 C         2.222812        -0.463969        -1.326819
 O         1.433153        -0.410807        -2.490471
 H        -0.141308        -1.028668        -0.585072
 H        -0.262184        -0.369787         1.061532
 H        -0.486700         0.602198        -0.389659
 H         2.736635         1.407132         0.584772
 H         2.228746        -0.931538         2.124241
 H         3.524271        -2.681149         0.973022
 H         3.054553        -2.579380        -1.808161
 H         4.544887        -0.238466        -0.808252
 H         4.085212        -0.481948        -2.422348
 H         1.374221        -1.342717        -2.830097
