19
Iteration:  1695
 C         0.037470        -0.118151         0.088770
 C         1.579678         0.016397         0.014526
 O         1.988609         1.449940         0.134007
 C         2.151738        -0.930245         1.079431
 C         2.782510        -2.019286         0.455927
 C         2.938362        -1.824626        -0.981093
 C         3.721270        -0.365589        -1.342118
 C         2.210746        -0.606270        -1.237254
 O         1.573230        -0.564692        -2.545882
 H        -0.549941         0.273629        -0.772038
 H        -0.166678        -1.153855        -0.007316
 H        -0.441066         0.367417         0.992614
 H         2.660427         1.472591         0.863390
 H         1.868688        -0.944186         2.103623
 H         3.200554        -2.884313         1.012632
 H         3.088088        -2.479513        -1.847777
 H         4.310651         0.093608        -0.651785
 H         3.864999        -0.258705        -2.432746
 H         1.233493         0.330328        -2.401700
