19
Iteration:  1800charge 0 multiplicity 1
 C         0.048874        -0.128571         0.011271
 C         1.622961         0.012128        -0.070247
 O         2.000069         1.349661         0.257207
 C         2.189006        -0.881234         1.015477
 C         2.888113        -1.987018         0.515120
 C         2.999625        -1.816685        -0.974426
 C         3.728464        -0.479791        -1.264950
 C         2.191706        -0.594710        -1.319215
 O         1.320664        -0.420199        -2.440778
 H        -0.510840         0.773505        -0.360449
 H        -0.270276        -1.050826        -0.504905
 H        -0.246428        -0.411140         1.028294
 H         2.039650         1.920374        -0.484694
 H         2.038960        -0.747759         2.062093
 H         3.088783        -2.869292         1.186570
 H         3.229592        -2.716287        -1.581348
 H         4.386739         0.144100        -0.686874
 H         4.243532        -0.327423        -2.298519
 H         1.953657        -0.265084        -3.157153
