19
Iteration:  4017
 C        -0.038760         0.118806         0.075352
 C         1.522564        -0.049552        -0.068197
 O         1.948034         1.279807         0.465541
 C         1.986245        -1.068116         0.972081
 C         3.033330        -1.854303         0.453173
 C         3.113724        -1.654380        -0.974196
 C         3.684294        -0.318807        -1.503226
 C         2.257209        -0.531589        -1.376943
 O         1.460758        -0.856533        -2.473006
 H        -0.187955         1.070948        -0.338743
 H        -0.723234        -0.708019        -0.431683
 H        -0.151191         0.222390         1.123939
 H         2.916197         1.215118         0.836975
 H         1.529441        -0.961597         2.002305
 H         3.725357        -2.279282         1.261189
 H         3.282822        -2.469134        -1.723271
 H         4.199233         0.328100        -0.910747
 H         3.998538        -0.137283        -2.504073
 H         1.278888         0.032020        -2.916546
