19
Iteration:  4923
 C        -0.060550         0.061092        -0.083212
 C         1.550570        -0.067525         0.033563
 O         1.913303         1.306161         0.358728
 C         2.148360        -1.113949         1.069343
 C         3.185211        -1.891142         0.512944
 C         3.140210        -1.777714        -0.945364
 C         3.563510        -0.377089        -1.519244
 C         2.175589        -0.572260        -1.313212
 O         1.418760        -0.545353        -2.493127
 H        -0.499662         0.235894        -1.041659
 H        -0.616290        -0.613438         0.427996
 H        -0.144165         0.993969         0.499791
 H         2.840477         1.286755         0.537514
 H         1.791130        -1.047808         2.174591
 H         3.717141        -2.651184         1.085275
 H         3.420742        -2.670458        -1.452311
 H         4.242525         0.284114        -0.890925
 H         3.852537        -0.526206        -2.568153
 H         0.762188         0.199640        -2.464353
