19
Iteration:   416charge 0 multiplicity 1
 C         0.064034        -0.161692        -0.139041
 C         1.637804         0.041312         0.029808
 O         1.775477         1.485711         0.269556
 C         2.133331        -0.972285         1.092651
 C         2.732600        -2.055279         0.591539
 C         2.981295        -1.804829        -0.897640
 C         3.773438        -0.454017        -1.463527
 C         2.339895        -0.502415        -1.284896
 O         1.511762        -0.535891        -2.436733
 H        -0.223285        -0.627316         0.810805
 H        -0.449507         0.796624        -0.139028
 H        -0.179164        -0.928188        -0.856803
 H         2.658364         1.582958        -0.267487
 H         1.995959        -0.771130         2.114340
 H         3.400346        -2.706096         1.074348
 H         2.862371        -2.446094        -1.767752
 H         4.244229         0.189011        -0.724163
 H         4.163575        -0.480190        -2.431733
 H         2.087861        -0.085478        -3.058788
