19
Iteration:   889charge 0 multiplicity 1
 C         0.059599         0.009108        -0.035944
 C         1.612289         0.028512        -0.029590
 O         1.888394         1.432775         0.208731
 C         2.032736        -0.964796         1.049278
 C         2.725772        -1.948464         0.498097
 C         3.091103        -1.799666        -0.908701
 C         3.722797        -0.403943        -1.350405
 C         2.268118        -0.590763        -1.310809
 O         1.602490        -0.654465        -2.504347
 H        -0.067206         0.182885         1.060551
 H        -0.439907         0.891721        -0.556792
 H        -0.220857        -0.962093        -0.413558
 H         2.865739         1.394266         0.475709
 H         1.739640        -0.832746         2.096248
 H         3.029225        -2.808055         1.064644
 H         3.111241        -2.675394        -1.538306
 H         4.339025         0.088587        -0.523851
 H         4.104349        -0.407657        -2.344494
 H         0.654189        -0.475216        -2.325457
