19
Iteration:   686
 C         0.093873        -0.054979        -0.177638
 C         1.514781        -0.001286         0.024663
 O         1.782592         1.339461         0.362149
 C         2.128243        -0.902379         1.034192
 C         2.949058        -1.828167         0.618322
 C         3.000415        -1.798307        -0.863362
 C         3.823913        -0.608016        -1.424637
 C         2.221005        -0.573592        -1.360389
 O         1.454468        -0.426258        -2.501044
 H        -0.316322        -0.371132         0.813055
 H        -0.288928         0.952070        -0.388786
 H        -0.198191        -0.757942        -1.005244
 H         2.696133         1.499036         0.065010
 H         1.712139        -0.826683         2.095818
 H         3.223896        -2.696030         1.259739
 H         3.189510        -2.814169        -1.300729
 H         4.373112         0.041308        -0.714611
 H         4.312966        -0.640287        -2.364781
 H         1.832026        -0.978624        -3.228268
