19
Iteration:  2905
 C         0.014186        -0.113555         0.171175
 C         1.508008         0.026169         0.049511
 O         1.942515         1.414350         0.243818
 C         2.172072        -0.943501         1.046142
 C         2.875150        -1.937247         0.441422
 C         3.147533        -1.736215        -1.059284
 C         3.693663        -0.403635        -1.266694
 C         2.216350        -0.554106        -1.413293
 O         1.467197        -0.668523        -2.513209
 H        -0.560037         0.615806        -0.444344
 H        -0.344719        -1.087421        -0.253773
 H        -0.432772         0.215789         1.187956
 H         2.581336         1.571849        -0.422949
 H         1.765659        -1.012390         2.051859
 H         3.195589        -2.825572         1.010441
 H         3.399428        -2.589165        -1.776627
 H         4.164247         0.100111        -0.413479
 H         4.191142        -0.315478        -2.196872
 H         1.079044         0.143976        -2.843653
