19
Iteration:  4434
 C         0.058716        -0.372587         0.090839
 C         1.589758        -0.047641         0.067441
 O         1.814349         1.359590         0.092369
 C         2.322498        -0.935624         1.055936
 C         2.871992        -1.969792         0.410713
 C         2.955086        -1.756809        -1.026298
 C         3.685729        -0.537679        -1.354117
 C         2.180954        -0.482564        -1.265650
 O         1.486952        -0.217539        -2.368227
 H         0.002753        -1.432494         0.381245
 H        -0.446060         0.134791         0.755647
 H        -0.269675        -0.109373        -0.949277
 H         2.775584         1.367616         0.223834
 H         2.188551        -0.841534         2.133759
 H         3.267943        -2.873136         0.811476
 H         2.922003        -2.624719        -1.608735
 H         4.454948        -0.069174        -0.684456
 H         3.920400        -0.503341        -2.455343
 H         1.493245         0.729793        -2.724718
