19
Iteration:  2511charge 0 multiplicity 1
 C         0.078059        -0.180569        -0.072997
 C         1.571057        -0.020114         0.078030
 O         1.787469         1.411106         0.235683
 C         2.301743        -0.842434         1.095841
 C         2.964941        -1.904303         0.630543
 C         2.900530        -1.876193        -0.940476
 C         3.689385        -0.673584        -1.566404
 C         2.216859        -0.562193        -1.245212
 O         1.472556        -0.320508        -2.438236
 H        -0.203494         0.252977        -1.065883
 H        -0.181175        -1.211997        -0.239445
 H        -0.439485         0.309417         0.687957
 H         2.648798         1.501843         0.555987
 H         2.005056        -0.823890         2.113778
 H         3.685847        -2.568233         1.074357
 H         2.530189        -2.786265        -1.528732
 H         4.426174         0.002748        -1.141911
 H         3.718071        -0.708021        -2.667128
 H         2.085657         0.110524        -3.074650
