19
Iteration:  4364
 C        -0.092481        -0.090969         0.026094
 C         1.482226        -0.042324         0.014994
 O         1.974492         1.358110         0.402834
 C         2.147797        -0.999045         1.053415
 C         3.067950        -1.868510         0.432885
 C         2.975592        -1.741789        -1.008024
 C         3.709960        -0.442865        -1.524005
 C         2.266442        -0.494166        -1.316530
 O         1.468350        -0.578677        -2.509650
 H        -0.272361        -0.861006        -0.677069
 H        -0.620129        -0.503589         0.987394
 H        -0.437255         0.836312        -0.319039
 H         2.375634         1.245499         1.299500
 H         2.132699        -0.923880         2.183029
 H         3.635051        -2.695996         0.979736
 H         2.967733        -2.685979        -1.676953
 H         4.381907         0.029941        -0.853464
 H         4.091200        -0.302630        -2.527121
 H         1.086450         0.354844        -2.620596
