19
Iteration:    16
 C        -0.043286        -0.113133         0.033852
 C         1.504718        -0.032281        -0.018506
 O         1.942001         1.397646         0.286515
 C         2.102087        -1.011071         1.038045
 C         2.897293        -1.922190         0.521346
 C         3.107284        -1.749155        -0.968911
 C         3.823003        -0.531747        -1.341050
 C         2.272317        -0.460852        -1.360064
 O         1.387818        -0.457845        -2.602702
 H        -0.323031         0.524676         0.950720
 H        -0.563937         0.398961        -0.804393
 H        -0.413846        -1.078957         0.309274
 H         2.421307         1.279761         1.140111
 H         2.052531        -0.762691         2.096280
 H         3.747168        -2.302102         1.108641
 H         3.080251        -2.595051        -1.693244
 H         4.379716         0.120365        -0.609659
 H         4.334879        -0.554617        -2.304582
 H         1.157666        -1.405059        -2.785969
