19
Iteration:  4739
 C         0.119690        -0.324369         0.173733
 C         1.642814         0.010705         0.008409
 O         1.648811         1.428238         0.267225
 C         2.347853        -0.872793         1.110766
 C         2.864898        -1.964401         0.428139
 C         2.876156        -1.814078        -1.072163
 C         3.811874        -0.735653        -1.433721
 C         2.245634        -0.418612        -1.330968
 O         1.555271        -0.249267        -2.522100
 H        -0.192618        -1.330168         0.583560
 H        -0.403806         0.435434         0.755951
 H        -0.377543        -0.146633        -0.875153
 H         2.645436         1.652283         0.360549
 H         2.270936        -0.827365         2.164521
 H         3.195387        -2.868435         0.918252
 H         2.670371        -2.569849        -1.866579
 H         4.428490        -0.354322        -0.641562
 H         4.087768        -0.296515        -2.372663
 H         0.618728        -0.305394        -2.348433
