19
Iteration:   992charge 0 multiplicity 1
 C         0.167008        -0.195945        -0.193754
 C         1.633135         0.066631        -0.081570
 O         1.839972         1.400551         0.361666
 C         2.100436        -0.957796         1.030625
 C         2.851315        -1.932584         0.539181
 C         2.976968        -1.805017        -0.914566
 C         3.782260        -0.583923        -1.325647
 C         2.219671        -0.522196        -1.262076
 O         1.414625        -0.351314        -2.420389
 H        -0.249314         0.236258        -1.073026
 H         0.147330        -1.224682        -0.122384
 H        -0.235171         0.396940         0.672966
 H         2.495677         1.903781        -0.181456
 H         1.694230        -0.851087         2.071771
 H         3.302965        -2.857977         0.991966
 H         2.797248        -2.545632        -1.710913
 H         4.434977        -0.160318        -0.524977
 H         4.220124        -0.763172        -2.282100
 H         1.655811        -0.930387        -3.180683
