19
Iteration:   459
 C        -0.059116        -0.129508        -0.010053
 C         1.462862        -0.025888        -0.070490
 O         1.881398         1.350473         0.111829
 C         2.138874        -0.946812         1.034837
 C         2.930525        -1.925069         0.627413
 C         3.031836        -1.882666        -0.890817
 C         3.736627        -0.506301        -1.296327
 C         2.237098        -0.606077        -1.325097
 O         1.576408        -0.316756        -2.560776
 H        -0.341334        -0.809311         0.802137
 H        -0.320345         0.931735         0.151400
 H        -0.346663        -0.661771        -0.909875
 H         2.854324         1.362323         0.381886
 H         2.196422        -0.634247         2.031284
 H         3.674892        -2.214885         1.322953
 H         3.074917        -2.915331        -1.277215
 H         4.177737        -0.070954        -0.433910
 H         4.288393        -0.617706        -2.185385
 H         0.783790         0.170434        -2.331953
