19
Iteration:  2846charge 0 multiplicity 1
 C        -0.075247        -0.062913         0.001419
 C         1.533717         0.002152         0.029004
 O         1.896932         1.372281         0.328764
 C         2.132250        -0.986283         1.026011
 C         3.015401        -1.882574         0.561973
 C         3.136065        -1.786708        -0.958938
 C         3.762341        -0.507435        -1.490166
 C         2.192476        -0.706837        -1.387994
 O         1.357864        -0.438852        -2.464367
 H        -0.281850         0.253669        -1.051730
 H        -0.328898        -1.101143         0.157715
 H        -0.500044         0.516006         0.766886
 H         2.851708         1.300826         0.726711
 H         1.977455        -0.774769         2.114522
 H         3.699796        -2.471994         1.158301
 H         3.222179        -2.653376        -1.526297
 H         4.345888         0.158523        -0.898214
 H         4.119998        -0.618317        -2.589728
 H         1.557136         0.429787        -2.846983
