19
Iteration:  1213charge 0 multiplicity 1
 C         0.026119        -0.104199        -0.054654
 C         1.585019        -0.076014        -0.091901
 O         1.987342         1.290021         0.191937
 C         2.123365        -0.925673         0.975902
 C         2.734686        -2.033616         0.521305
 C         2.969934        -1.761029        -0.916745
 C         3.838697        -0.254572        -1.205946
 C         2.245533        -0.554559        -1.290897
 O         1.470263        -0.527232        -2.447466
 H        -0.398058         0.344152        -0.949078
 H        -0.275974        -1.189223        -0.061235
 H        -0.110465         0.406871         0.837788
 H         2.540093         1.467114        -0.519320
 H         2.031768        -0.754353         2.092509
 H         3.081490        -2.926046         1.153789
 H         3.200804        -2.526416        -1.658850
 H         4.231429         0.173720        -0.251893
 H         4.384887        -0.096105        -2.191339
 H         0.827356         0.215431        -2.393550
