19
Iteration:  2580charge 0 multiplicity 1
 C         0.007684        -0.064542         0.076677
 C         1.606186         0.038779         0.057047
 O         1.941433         1.385266         0.098116
 C         2.232178        -1.039055         1.191707
 C         2.769553        -2.034335         0.509701
 C         3.031427        -1.731724        -0.942619
 C         3.747797        -0.371188        -1.406573
 C         2.211128        -0.528285        -1.340520
 O         1.481671        -0.607419        -2.515545
 H        -0.370335         0.900161        -0.321669
 H        -0.398640        -0.709912        -0.656537
 H        -0.337487        -0.197598         1.152841
 H         2.917476         1.349936        -0.167651
 H         1.841267        -1.080549         2.265192
 H         3.212709        -2.833462         1.110651
 H         2.999750        -2.424167        -1.715276
 H         4.261051         0.266887        -0.714922
 H         4.099218        -0.268462        -2.446561
 H         0.851686         0.119827        -2.360125
