19
Iteration:   222charge 0 multiplicity 1
 C        -0.029876        -0.149375        -0.109193
 C         1.488201         0.011888         0.035531
 O         1.972865         1.342708         0.093592
 C         2.061767        -0.972199         1.062230
 C         2.873512        -1.886821         0.580892
 C         3.127825        -1.792070        -0.907153
 C         3.766887        -0.517777        -1.395338
 C         2.260886        -0.592417        -1.253407
 O         1.443972        -0.359559        -2.410070
 H        -0.667458        -0.020916         0.792431
 H        -0.489805         0.423801        -0.958474
 H        -0.166698        -1.211817        -0.341056
 H         2.708725         1.425340         0.740519
 H         1.774856        -1.024450         2.144415
 H         3.214986        -2.692313         1.230784
 H         3.118245        -2.723225        -1.447553
 H         4.381853         0.006213        -0.592372
 H         4.014316        -0.503906        -2.451406
 H         1.963421         0.191995        -3.002568
