19
Iteration:   508
 C        -0.013038        -0.135419        -0.021043
 C         1.513001         0.045860         0.035910
 O         1.868692         1.444256         0.223527
 C         2.070408        -0.959609         1.085989
 C         2.853851        -1.951645         0.517128
 C         2.982834        -1.795820        -0.974687
 C         3.791193        -0.571859        -1.367692
 C         2.272896        -0.473002        -1.224053
 O         1.573954        -0.461833        -2.527394
 H        -0.407726        -0.651676         0.876140
 H        -0.398370         0.857142        -0.209718
 H        -0.060018        -0.842423        -0.838247
 H         2.728194         1.779195        -0.081360
 H         2.084009        -0.631577         2.172326
 H         3.431856        -2.693153         1.096547
 H         3.007675        -2.610236        -1.668490
 H         4.468402        -0.050114        -0.591492
 H         4.035221        -0.567273        -2.425546
 H         1.483621        -1.390151        -2.868300
