19
Iteration:  4279charge 0 multiplicity 1
 C        -0.043846         0.070669         0.110567
 C         1.569759        -0.063571         0.069805
 O         1.991220         1.276356         0.415637
 C         2.032865        -1.151344         1.049459
 C         2.934446        -1.935886         0.405059
 C         3.119871        -1.617653        -1.032240
 C         3.643395        -0.239529        -1.482675
 C         2.232322        -0.508194        -1.337276
 O         1.488235        -0.736931        -2.493535
 H        -0.635723        -0.799537         0.477113
 H        -0.278940         0.985824         0.563972
 H        -0.366208         0.154142        -0.997469
 H         2.787615         1.552063        -0.106997
 H         1.705076        -1.338241         2.086492
 H         3.443447        -2.753247         0.918750
 H         3.162449        -2.431311        -1.851304
 H         4.003851         0.261989        -0.573458
 H         4.221642        -0.163081        -2.420492
 H         1.534883         0.044394        -3.017929
