19
Iteration:  1269
 C        -0.079652        -0.061206         0.012612
 C         1.553200        -0.028646        -0.002731
 O         1.773086         1.339642         0.245901
 C         2.145471        -0.890659         1.121974
 C         2.843954        -1.875667         0.540812
 C         2.991999        -1.885996        -0.997542
 C         3.769729        -0.595892        -1.445828
 C         2.277857        -0.506540        -1.299788
 O         1.647681        -0.469998        -2.510877
 H        -0.451127         0.822814        -0.518708
 H        -0.509573        -1.018331        -0.332457
 H        -0.442013        -0.013269         1.017199
 H         2.669575         1.357085         0.646037
 H         2.232537        -0.665056         2.166551
 H         3.607821        -2.428784         1.097238
 H         2.971794        -2.645310        -1.772844
 H         4.343957        -0.168461        -0.549719
 H         4.181039        -0.566910        -2.429923
 H         1.741846         0.353219        -3.024548
