19
Iteration:  1252charge 0 multiplicity 1
 C         0.059146        -0.090011         0.066267
 C         1.527195        -0.029020        -0.008781
 O         1.816781         1.411308         0.222117
 C         2.112281        -0.983357         1.027837
 C         2.863603        -1.974348         0.532668
 C         2.942342        -1.734593        -0.911615
 C         3.792822        -0.494009        -1.348318
 C         2.215020        -0.534916        -1.260277
 O         1.658478        -0.538038        -2.588307
 H        -0.480458         0.731055        -0.439465
 H        -0.349812        -1.028723        -0.293318
 H        -0.321088         0.045235         1.152274
 H         2.747335         1.614678        -0.139669
 H         1.749048        -0.845219         2.048914
 H         3.170625        -2.850822         1.071616
 H         2.842903        -2.629664        -1.539883
 H         4.498158        -0.029637        -0.727256
 H         4.087848        -0.471066        -2.427545
 H         1.418952         0.381743        -2.805387
