19
Iteration:  3509charge 0 multiplicity 1
 C        -0.029473        -0.233731        -0.045642
 C         1.599335        -0.030008         0.006087
 O         1.973267         1.368430         0.300554
 C         2.253177        -0.889178         1.047528
 C         2.925076        -1.910378         0.533351
 C         3.017105        -1.771281        -0.946780
 C         3.750136        -0.433681        -1.368165
 C         2.244031        -0.497197        -1.367808
 O         1.365381        -0.549490        -2.427007
 H        -0.510344         0.634753        -0.596913
 H        -0.294968        -1.081915        -0.738698
 H        -0.592018        -0.120739         0.868327
 H         2.006304         1.821558        -0.505473
 H         1.862649        -0.731843         2.025886
 H         3.335319        -2.844064         1.005227
 H         3.191506        -2.681646        -1.636511
 H         4.210487         0.068351        -0.576661
 H         4.320439        -0.531216        -2.325356
 H         1.059603         0.355431        -2.574544
