19
Iteration:   496
 C        -0.058750        -0.107559         0.013218
 C         1.560626         0.005234         0.067799
 O         1.820899         1.441002         0.166497
 C         2.158022        -0.951322         1.076527
 C         2.884031        -1.917213         0.588029
 C         3.013849        -1.815911        -0.886033
 C         3.751397        -0.536209        -1.437456
 C         2.246422        -0.593297        -1.323908
 O         1.631490        -0.359170        -2.527252
 H        -0.535340        -0.592681         0.837380
 H        -0.638692         0.788859        -0.114789
 H        -0.431014        -0.597984        -0.912867
 H         2.848435         1.302605         0.113106
 H         1.753698        -0.994984         2.161531
 H         3.271953        -2.805015         1.151321
 H         2.894478        -2.744428        -1.457599
 H         4.498092        -0.187108        -0.676919
 H         4.216806        -0.444514        -2.458868
 H         1.333471        -1.211868        -2.832984
