19
Iteration:  3013
 C        -0.018530        -0.248540         0.135184
 C         1.600435        -0.045832         0.049270
 O         1.883308         1.375747         0.058678
 C         2.253628        -0.909162         1.100347
 C         2.953306        -1.906835         0.544640
 C         2.950107        -1.783733        -1.005423
 C         3.708826        -0.530463        -1.399977
 C         2.219396        -0.554571        -1.312491
 O         1.511313        -0.386460        -2.513089
 H        -0.633317         0.273510        -0.579084
 H        -0.319592        -1.297848         0.359694
 H        -0.252288         0.122470         1.209562
 H         1.378881         1.795740         0.803730
 H         1.864603        -0.758613         2.122393
 H         3.431185        -2.795288         0.961939
 H         3.045298        -2.620742        -1.736955
 H         4.283960         0.008628        -0.702613
 H         4.116391        -0.430600        -2.469891
 H         1.884296         0.433662        -2.832191
