19
Iteration:   817charge 0 multiplicity 1
 C        -0.074897        -0.076322        -0.112494
 C         1.499828        -0.028189        -0.056436
 O         1.883900         1.383519         0.284174
 C         2.166126        -0.890995         1.176747
 C         2.989050        -1.847829         0.581403
 C         2.901673        -1.861791        -0.881350
 C         3.692666        -0.685561        -1.312226
 C         2.213443        -0.557462        -1.309798
 O         1.633189        -0.326100        -2.604874
 H        -0.303556         0.256694         0.882571
 H        -0.492655         0.584363        -0.827034
 H        -0.440032        -1.140821        -0.329025
 H         2.680974         1.538110        -0.352277
 H         2.082829        -0.664988         2.238047
 H         3.667667        -2.538385         1.043300
 H         3.116494        -2.801116        -1.370546
 H         4.198511        -0.082467        -0.559215
 H         4.121596        -0.688727        -2.317733
 H         1.551491        -1.182463        -3.087683
