19
Iteration:  1490charge 0 multiplicity 1
 C        -0.011152        -0.095830        -0.004507
 C         1.572622         0.023307        -0.005094
 O         1.910042         1.341053         0.404362
 C         2.177513        -0.975782         1.101277
 C         2.876487        -1.915937         0.498354
 C         2.923948        -1.779692        -0.969959
 C         3.736470        -0.624550        -1.473019
 C         2.278348        -0.413288        -1.353247
 O         1.560417        -0.531773        -2.522721
 H        -0.527394         0.762394        -0.387058
 H        -0.350206        -0.950879        -0.509559
 H        -0.244155         0.011944         1.064727
 H         1.693768         1.937073        -0.335606
 H         2.028687        -0.843436         2.217951
 H         3.603162        -2.535459         1.106053
 H         2.664777        -2.686633        -1.503397
 H         4.347151        -0.159941        -0.670009
 H         4.128686        -0.651940        -2.435287
 H         1.596806         0.353323        -2.959243
