19
Iteration:  3660charge 0 multiplicity 1
 C        -0.025686        -0.112553         0.025127
 C         1.499576        -0.000036         0.028415
 O         1.899015         1.370830         0.310087
 C         2.135059        -0.970793         1.047698
 C         2.933983        -1.889469         0.480985
 C         3.089781        -1.789547        -0.953325
 C         3.801223        -0.499604        -1.404016
 C         2.257305        -0.511002        -1.344628
 O         1.434149        -0.552576        -2.482189
 H        -0.513681         0.584453        -0.519301
 H        -0.362522        -1.056959        -0.475558
 H        -0.480948        -0.141187         0.966763
 H         2.365301         1.673738        -0.425043
 H         1.986488        -0.855733         2.140550
 H         3.512619        -2.572219         1.053727
 H         3.184159        -2.644419        -1.655716
 H         4.283978         0.169598        -0.687101
 H         4.397718        -0.504254        -2.271127
 H         1.114946         0.336499        -2.715704
