19
Iteration:   220charge 0 multiplicity 1
 C        -0.021486        -0.149592        -0.123416
 C         1.490574         0.002670         0.036116
 O         1.978093         1.346944         0.081425
 C         2.057997        -0.975800         1.046094
 C         2.895589        -1.909099         0.597219
 C         3.115424        -1.790589        -0.894311
 C         3.761719        -0.501853        -1.385865
 C         2.249508        -0.579288        -1.243708
 O         1.442782        -0.359293        -2.406905
 H        -0.644940        -0.097242         0.837113
 H        -0.543614         0.408808        -0.952269
 H        -0.159548        -1.144381        -0.422416
 H         2.704728         1.494641         0.808308
 H         1.810296        -1.015940         2.128558
 H         3.161910        -2.750079         1.249721
 H         3.032579        -2.749421        -1.432136
 H         4.430727         0.031649        -0.721681
 H         3.987038        -0.489783        -2.481137
 H         2.007679         0.167980        -2.977659
