19
Iteration:  3164
 C         0.069792        -0.079926        -0.102131
 C         1.616155        -0.076933         0.107773
 O         2.065448         1.381369         0.234633
 C         2.155508        -1.010256         1.097266
 C         2.856335        -1.960578         0.450860
 C         3.154329        -1.697832        -1.011908
 C         3.654494        -0.285412        -1.343409
 C         2.160513        -0.537646        -1.264171
 O         1.323550        -0.691044        -2.397906
 H        -0.293756         0.582272        -0.879285
 H        -0.271818        -1.038455        -0.322008
 H        -0.370232         0.268750         0.866817
 H         1.497153         1.906031        -0.355848
 H         1.871709        -1.045582         2.149819
 H         3.296007        -2.804951         0.922446
 H         3.306623        -2.402929        -1.753825
 H         4.305329         0.172213        -0.615033
 H         4.126930        -0.118067        -2.339325
 H         1.421189         0.018287        -3.046147
