19
Iteration:  4266
 C        -0.041206         0.034285         0.073408
 C         1.490734        -0.036107         0.071992
 O         1.974375         1.312169         0.445991
 C         2.143861        -1.073042         1.047127
 C         2.940983        -2.062765         0.441570
 C         3.141531        -1.664605        -0.962557
 C         3.669560        -0.238008        -1.436599
 C         2.125519        -0.557127        -1.347300
 O         1.477066        -0.652962        -2.610836
 H        -0.281411        -0.756698         0.701852
 H        -0.332892         0.983014         0.602306
 H        -0.444010        -0.021064        -0.885225
 H         2.824198         1.425911        -0.102601
 H         1.815554        -1.040540         2.131323
 H         3.396459        -2.934354         0.874887
 H         3.284999        -2.523829        -1.669821
 H         4.221930         0.412476        -0.820814
 H         4.014905        -0.274470        -2.458430
 H         1.735503         0.150800        -3.165161
