19
Iteration:  2338charge 0 multiplicity 1
 C         0.036748         0.026573        -0.070253
 C         1.573315        -0.040374         0.003425
 O         1.893679         1.340153         0.505315
 C         2.178797        -0.934783         0.985911
 C         2.996969        -1.836753         0.493794
 C         3.002387        -1.788260        -1.007809
 C         3.717234        -0.518572        -1.536347
 C         2.242602        -0.567053        -1.325145
 O         1.363322        -0.619672        -2.444550
 H        -0.105206         0.488501        -1.092107
 H        -0.444998        -0.994508        -0.031540
 H        -0.541375         0.650747         0.582692
 H         2.849065         1.355146         0.899836
 H         2.113842        -0.803463         2.057486
 H         3.474935        -2.523087         1.141671
 H         3.002783        -2.767203        -1.462904
 H         4.342639         0.039475        -0.910376
 H         4.104375        -0.494024        -2.569688
 H         1.224004         0.234069        -2.888033
