19
Iteration:  4820
 C        -0.004479        -0.164428         0.039465
 C         1.552064        -0.057659         0.027837
 O         1.893965         1.373081         0.239605
 C         2.180890        -0.983746         0.995336
 C         3.014826        -1.961626         0.476415
 C         3.068822        -1.860568        -1.001618
 C         3.688796        -0.455699        -1.344382
 C         2.204833        -0.554385        -1.279457
 O         1.364722        -0.359640        -2.486221
 H        -0.365495        -0.758393        -0.834345
 H        -0.376289        -0.686155         1.048204
 H        -0.554623         0.772609        -0.022819
 H         2.930922         1.367166         0.170398
 H         2.321899        -0.658769         2.063015
 H         3.674848        -2.491590         1.240599
 H         3.032142        -2.625693        -1.805149
 H         4.462256        -0.198938        -0.587656
 H         4.037974        -0.231496        -2.365739
 H         1.333713         0.561533        -2.709507
