19
Iteration:   715charge 0 multiplicity 1
 C        -0.139986        -0.074322        -0.145403
 C         1.428170        -0.086389         0.005005
 O         1.895233         1.365571         0.290201
 C         2.166371        -0.898356         1.028872
 C         3.015815        -1.897600         0.613026
 C         2.987797        -1.800387        -0.907462
 C         3.723820        -0.599272        -1.381640
 C         2.144834        -0.594710        -1.237342
 O         1.623198        -0.420743        -2.529181
 H        -0.448246         0.289724         0.835290
 H        -0.296857         0.783441        -0.810099
 H        -0.605503        -0.993886        -0.320206
 H         2.735497         1.340835        -0.099015
 H         2.083584        -0.651832         2.093717
 H         3.765757        -2.377025         1.318634
 H         2.901472        -2.781420        -1.447341
 H         4.307020         0.037234        -0.728027
 H         4.113322        -0.540430        -2.484168
 H         2.333666        -0.004825        -3.015340
