19
Iteration:  1605
 C         0.070443        -0.166852        -0.111223
 C         1.620645        -0.035432         0.004604
 O         1.964646         1.314709         0.444786
 C         2.115177        -0.908378         1.118649
 C         2.906442        -1.828462         0.610728
 C         2.913409        -1.800317        -0.951605
 C         3.725232        -0.623358        -1.510144
 C         2.270413        -0.445256        -1.358761
 O         1.440549        -0.416999        -2.537864
 H        -0.323164         0.629597        -0.843901
 H        -0.110660        -1.153423        -0.647728
 H        -0.361864         0.032183         0.885349
 H         1.370064         2.058773         0.287328
 H         2.000602        -0.666331         2.240379
 H         3.368472        -2.661774         1.175654
 H         2.846139        -2.708198        -1.552113
 H         4.223205         0.038983        -0.668085
 H         4.218436        -0.755425        -2.448058
 H         1.941376        -0.668442        -3.342151
