19
Iteration:  2932
 C         0.170839        -0.205920        -0.055544
 C         1.602187         0.022307        -0.028659
 O         1.857142         1.461068         0.348246
 C         2.139466        -0.969698         1.079574
 C         2.788121        -1.996404         0.518967
 C         3.037344        -1.690979        -0.955461
 C         3.771294        -0.409764        -1.465078
 C         2.265293        -0.484382        -1.347097
 O         1.410108        -0.654507        -2.401495
 H        -0.511349         0.543783        -0.487058
 H        -0.165523        -1.146543        -0.492864
 H        -0.094862        -0.187307         0.971419
 H         2.463529         1.762078        -0.321640
 H         2.083059        -0.621329         2.127228
 H         3.234637        -2.909819         0.927398
 H         2.948029        -2.504962        -1.643420
 H         4.428983         0.178247        -0.775984
 H         4.082249        -0.592531        -2.514950
 H         1.072936         0.198747        -2.673775
