19
Iteration:  3639charge 0 multiplicity 1
 C         0.093739        -0.222099         0.000620
 C         1.598009        -0.031869        -0.000362
 O         1.829341         1.392620         0.073178
 C         2.170425        -0.969124         1.081574
 C         2.867749        -1.957844         0.498469
 C         3.018576        -1.722025        -0.948998
 C         3.777742        -0.441703        -1.361354
 C         2.221543        -0.560348        -1.237941
 O         1.483356        -0.442520        -2.386182
 H        -0.434975         0.590285        -0.391583
 H        -0.347552        -1.121955        -0.443144
 H        -0.220270        -0.388195         0.988283
 H         2.643191         1.636349        -0.496831
 H         1.799409        -0.820636         2.123052
 H         3.149760        -2.846422         0.975820
 H         2.908425        -2.439378        -1.775806
 H         4.572831        -0.213698        -0.634796
 H         4.102518        -0.266833        -2.355006
 H         0.965833         0.340192        -2.150187
