19
Iteration:  1839
 C         0.041728        -0.056227         0.204626
 C         1.537602         0.015556         0.043035
 O         1.839662         1.358082         0.184658
 C         2.196848        -0.965695         1.132251
 C         2.924191        -1.951644         0.497695
 C         2.884589        -1.734976        -0.965074
 C         3.772738        -0.515482        -1.418470
 C         2.189866        -0.543029        -1.275172
 O         1.523459        -0.490951        -2.631538
 H        -0.488440         0.863759         0.047494
 H        -0.465275        -0.766635        -0.572315
 H        -0.168333        -0.526985         1.171625
 H         2.818572         1.559683        -0.108240
 H         1.919234        -0.871311         2.227737
 H         3.289429        -2.833787         0.950766
 H         2.971540        -2.567316        -1.643181
 H         4.556711        -0.111429        -0.661682
 H         4.024177        -0.454674        -2.419944
 H         2.267023        -0.333920        -3.254316
