19
Iteration:   693charge 0 multiplicity 1
 C         0.026400        -0.011806        -0.148585
 C         1.520301        -0.003065        -0.010950
 O         1.777058         1.310769         0.358535
 C         2.098462        -0.917110         1.136384
 C         2.969930        -1.842648         0.630986
 C         3.011369        -1.833114        -0.877536
 C         3.738762        -0.584168        -1.415528
 C         2.286346        -0.576858        -1.347560
 O         1.483803        -0.414602        -2.563066
 H        -0.490883        -0.307582         0.752624
 H        -0.270768         0.996469        -0.454619
 H        -0.139170        -0.793071        -0.810828
 H         2.672769         1.581057        -0.067913
 H         2.047384        -0.701938         2.190500
 H         3.583149        -2.625964         1.160518
 H         3.193410        -2.835493        -1.318746
 H         4.380270        -0.078077        -0.717147
 H         4.198291        -0.764774        -2.471771
 H         1.934011        -0.768320        -3.372522
