19
Iteration:  4557
 C         0.062192         0.024633        -0.028894
 C         1.580429        -0.105384         0.048312
 O         1.994431         1.244915         0.267729
 C         2.124044        -1.104043         1.070481
 C         2.929935        -1.935864         0.473204
 C         3.150741        -1.737730        -0.994644
 C         3.638012        -0.246241        -1.450390
 C         2.223218        -0.540372        -1.294088
 O         1.256553        -0.476799        -2.421851
 H        -0.214789        -0.909260        -0.377726
 H        -0.287621         0.251622         1.014045
 H        -0.199327         0.730318        -0.734714
 H         2.465544         1.169501         1.032719
 H         1.839082        -0.923387         2.045976
 H         3.429209        -2.767411         0.975277
 H         3.685378        -2.532396        -1.646555
 H         4.182358         0.538776        -0.943802
 H         3.944687        -0.286413        -2.449845
 H         1.741512        -1.011270        -3.118699
