19
Iteration:   577
 C        -0.040256        -0.015718        -0.113240
 C         1.509439        -0.050120         0.037214
 O         2.025772         1.200315         0.229806
 C         1.988707        -1.047695         1.070293
 C         3.012131        -1.813259         0.643299
 C         3.027276        -1.788926        -0.927671
 C         3.751378        -0.453336        -1.435783
 C         2.244154        -0.567311        -1.289708
 O         1.636206        -0.407386        -2.486859
 H        -0.552379         0.809982         0.494055
 H        -0.571647         0.126247        -1.091335
 H        -0.505358        -0.829824         0.440055
 H         1.368071         1.934791        -0.072446
 H         1.579611        -0.987840         2.073193
 H         3.435645        -2.615971         1.274550
 H         2.989192        -2.552043        -1.752515
 H         4.264511         0.181176        -0.794490
 H         3.909075        -0.368655        -2.548744
 H         0.716230        -0.742941        -2.503409
