19
Iteration:  2620charge 0 multiplicity 1
 C         0.007362        -0.001688        -0.059157
 C         1.550322        -0.065243        -0.022584
 O         1.978637         1.302798         0.278071
 C         2.117122        -0.953622         0.995580
 C         2.969004        -1.859334         0.561336
 C         3.069827        -1.820048        -0.974562
 C         3.741499        -0.448025        -1.431838
 C         2.191846        -0.674191        -1.291470
 O         1.328331        -0.501885        -2.407421
 H        -0.355859         0.694328        -0.908623
 H        -0.384101        -1.034333        -0.120011
 H        -0.315370         0.480638         0.840478
 H         2.906745         1.485128         0.177220
 H         1.802957        -0.924461         2.110526
 H         3.771485        -2.340170         1.207053
 H         3.154785        -2.663692        -1.675843
 H         4.194536         0.066711        -0.505853
 H         4.202883        -0.296232        -2.357849
 H         1.453215         0.382517        -2.807444
