19
Iteration:  4455charge 0 multiplicity 1
 C         0.028002        -0.321682         0.076300
 C         1.556600        -0.082185         0.003640
 O         1.777419         1.393047         0.266104
 C         2.251834        -0.936636         1.056136
 C         2.952247        -1.934071         0.513231
 C         2.882982        -1.849053        -1.064989
 C         3.822958        -0.578981        -1.420948
 C         2.286168        -0.554920        -1.353577
 O         1.469664        -0.188790        -2.430818
 H        -0.057240        -1.398114         0.362915
 H        -0.316815         0.188047         0.850379
 H        -0.512518         0.020518        -0.865727
 H         2.532785         1.498722        -0.474131
 H         2.264997        -0.684568         2.118864
 H         3.665068        -2.524151         1.053864
 H         2.723985        -2.568921        -1.805985
 H         4.330851        -0.179938        -0.494640
 H         4.138027        -0.337882        -2.475369
 H         1.018241         0.622273        -2.136313
