19
Iteration:  2973
 C        -0.052332        -0.183936        -0.097002
 C         1.527082        -0.024137        -0.049209
 O         1.781064         1.430666         0.358312
 C         2.268462        -0.891165         1.079525
 C         3.104637        -1.780113         0.556820
 C         2.989593        -1.887694        -0.989798
 C         3.676570        -0.664133        -1.500608
 C         2.150300        -0.633808        -1.273016
 O         1.485935        -0.375163        -2.458315
 H        -0.439736         0.413310        -0.900454
 H        -0.198398        -1.306923        -0.397555
 H        -0.409677         0.215298         0.847040
 H         2.577074         1.374022         0.925647
 H         2.286724        -0.685981         2.178558
 H         3.770340        -2.319794         1.229775
 H         3.109727        -2.731022        -1.586203
 H         4.369426        -0.160454        -0.868573
 H         4.006929        -0.620604        -2.569912
 H         1.786801         0.525022        -2.761638
