19
Iteration:  4112charge 0 multiplicity 1
 C        -0.010397        -0.180951         0.072132
 C         1.609488        -0.018738         0.022880
 O         1.743968         1.372663         0.247339
 C         2.230150        -1.012684         1.087659
 C         2.947911        -1.977211         0.539243
 C         3.010879        -1.766851        -0.967168
 C         3.758762        -0.530844        -1.434712
 C         2.229772        -0.539239        -1.342762
 O         1.463641        -0.363366        -2.551172
 H        -0.422351        -0.609440        -0.851244
 H        -0.294246        -0.829344         0.940003
 H        -0.355318         0.815504         0.209575
 H         2.599630         1.615970         0.516256
 H         2.155472        -0.637993         2.090307
 H         3.586188        -2.824036         0.959564
 H         3.086719        -2.648771        -1.647705
 H         4.461648         0.023213        -0.777840
 H         4.294166        -0.516109        -2.420965
 H         1.352399         0.588926        -2.671504
