19
Iteration:  1694
 C         0.038425        -0.115685         0.094292
 C         1.576535         0.010005         0.012873
 O         1.989880         1.453763         0.130971
 C         2.147403        -0.942056         1.079957
 C         2.782524        -2.015862         0.455212
 C         2.939579        -1.824131        -0.979933
 C         3.724439        -0.357732        -1.343649
 C         2.215594        -0.610361        -1.239564
 O         1.568799        -0.563610        -2.542200
 H        -0.543652         0.289625        -0.767376
 H        -0.136707        -1.142318        -0.038051
 H        -0.448007         0.339045         0.986620
 H         2.657496         1.484120         0.809119
 H         1.878281        -0.910198         2.092029
 H         3.162427        -2.884379         0.998117
 H         3.103729        -2.496363        -1.817307
 H         4.311089         0.086142        -0.621071
 H         3.849512        -0.271506        -2.434528
 H         1.252729         0.340940        -2.370795
