19
Iteration:  4271charge 0 multiplicity 1
 C        -0.018048         0.066730         0.083079
 C         1.491374        -0.053078         0.090570
 O         1.994974         1.301883         0.426029
 C         2.140950        -1.135007         1.053306
 C         2.910432        -2.005157         0.432103
 C         3.143419        -1.644897        -0.975604
 C         3.622602        -0.233487        -1.477627
 C         2.193328        -0.537489        -1.348196
 O         1.485097        -0.689245        -2.572073
 H        -0.561546        -0.799516         0.707445
 H        -0.444635         0.918751         0.587703
 H        -0.562379         0.035380        -0.960372
 H         2.766589         1.591375        -0.035918
 H         1.699191        -1.112125         2.018626
 H         3.450738        -2.883901         0.840817
 H         3.178270        -2.465111        -1.696982
 H         4.182652         0.367692        -0.678085
 H         4.227135        -0.228150        -2.430414
 H         1.688947         0.080856        -3.085364
