19
Iteration:  1638
 C        -0.059113        -0.090630        -0.128277
 C         1.521110         0.002391         0.011419
 O         1.953019         1.338502         0.338806
 C         2.165985        -0.933459         1.096160
 C         2.946691        -1.887381         0.515345
 C         3.040378        -1.865692        -0.961957
 C         3.661124        -0.629431        -1.440743
 C         2.258792        -0.540741        -1.276894
 O         1.453086        -0.396607        -2.424853
 H        -0.282741         0.955328        -0.413355
 H        -0.447808        -0.851813        -0.831096
 H        -0.484318        -0.392184         0.839653
 H         2.195137         1.749737        -0.470887
 H         2.195141        -0.607801         2.165246
 H         3.532307        -2.440871         1.240860
 H         3.062758        -2.668584        -1.682929
 H         4.082800         0.019957        -0.592685
 H         4.208955        -0.529366        -2.332130
 H         2.130185        -0.158653        -3.100200
