19
Iteration:  1453charge 0 multiplicity 1
 C         0.120522        -0.116067        -0.244005
 C         1.624215         0.064447         0.000427
 O         1.940532         1.384438         0.527634
 C         2.183402        -0.916526         1.074299
 C         2.752947        -1.952153         0.486994
 C         3.094396        -1.817566        -0.915385
 C         3.698682        -0.567229        -1.506442
 C         2.261718        -0.497589        -1.360935
 O         1.393472        -0.530499        -2.379210
 H        -0.048088         0.587333        -1.081038
 H        -0.268715        -1.133897        -0.477710
 H        -0.401053         0.067226         0.676094
 H         1.241509         1.952751         0.287479
 H         2.313482        -0.792196         2.136332
 H         3.220428        -2.702467         1.085120
 H         3.081512        -2.659396        -1.622056
 H         4.271297         0.083116        -0.877918
 H         4.164763        -0.715650        -2.561193
 H         1.367648         0.089893        -3.126794
