19
Iteration:  4899charge 0 multiplicity 1
 C         0.052530        -0.013573        -0.061454
 C         1.539742        -0.067597         0.043903
 O         1.981960         1.191299         0.459771
 C         2.086157        -0.957952         1.071455
 C         2.995411        -1.844611         0.474712
 C         3.105810        -1.669625        -1.011800
 C         3.710767        -0.354295        -1.521413
 C         2.168879        -0.540605        -1.331177
 O         1.315637        -0.656049        -2.502748
 H        -0.278456        -0.131308        -1.119337
 H        -0.433066        -0.763290         0.547123
 H        -0.246536         0.985617         0.349412
 H         2.911302         1.075529         0.622844
 H         1.951666        -0.616214         2.094495
 H         3.700168        -2.378182         1.084856
 H         3.298507        -2.539761        -1.641224
 H         4.287522         0.103533        -0.648547
 H         4.163553        -0.338784        -2.558617
 H         1.078642         0.214897        -2.794919
